TST-00001-06
     RDKit          3D

 27 27  0  0  0  0  0  0  0  0999 V2000
    2.0049   -3.4343    0.5909 H   0  0  0  0  0  0  0  0  0  0  0  0
    0.2863   -2.7128    2.2243 H   0  0  0  0  0  0  0  0  0  0  0  0
    3.3107    0.6764    0.1963 H   0  0  0  0  0  0  0  0  0  0  0  0
    8.0163   -2.0594    0.0393 H   0  0  0  0  0  0  0  0  0  0  0  0
    8.3368   -1.6556   -1.6745 H   0  0  0  0  0  0  0  0  0  0  0  0
    7.6714   -0.4156   -0.5720 H   0  0  0  0  0  0  0  0  0  0  0  0
    5.4552   -2.4333    0.7123 H   0  0  0  0  0  0  0  0  0  0  0  0
    5.3922   -0.6984    0.3035 H   0  0  0  0  0  0  0  0  0  0  0  0
    3.6955   -2.9291   -0.9456 H   0  0  0  0  0  0  0  0  0  0  0  0
    5.9287   -1.3555   -1.9810 H   0  0  0  0  0  0  0  0  0  0  0  0
    6.2865   -2.8763   -1.4795 H   0  0  0  0  0  0  0  0  0  0  0  0
   -0.6470   -0.8219    3.3621 H   0  0  0  0  0  0  0  0  0  0  0  0
    0.8661    1.7511    2.5068 H   0  0  0  0  0  0  0  0  0  0  0  0
    3.0193   -0.9262   -2.2132 H   0  0  0  0  0  0  0  0  0  0  0  0
    1.9318   -2.3843    0.8619 C   0  0  0  0  0  0  0  0  0  0  0  0
    0.9581   -1.9796    1.7837 C   0  0  0  0  0  0  0  0  0  0  0  0
    2.6738   -0.0837    0.6409 C   0  0  0  0  0  0  0  0  0  0  0  0
    2.7925   -1.4415    0.2941 C   0  0  0  0  0  0  0  0  0  0  0  0
    0.8437   -0.6358    2.1282 C   0  0  0  0  0  0  0  0  0  0  0  0
    1.7043    0.3249    1.5502 C   0  0  0  0  0  0  0  0  0  0  0  0
    7.6841   -1.4767   -0.8197 C   0  0  0  0  0  0  0  0  0  0  0  0
    5.2569   -1.7105   -0.0801 C   0  0  0  0  0  0  0  0  0  0  0  0
    3.8578   -1.8743   -0.6807 C   0  0  2  0  0  0  0  0  0  0  0  0
    6.2864   -1.8960   -1.1771 N   0  0  0  0  0  0  0  0  0  0  0  0
   -0.0707   -0.1240    3.0104 O   0  0  0  0  0  0  0  0  0  0  0  0
    1.5962    1.6403    1.8707 O   0  0  0  0  0  0  0  0  0  0  0  0
    3.9196   -1.0810   -1.8807 O   0  0  0  0  0  0  0  0  0  0  0  0
 15 16  2  0
 15 18  1  0
  1 15  1  0
 16 19  1  0
  2 16  1  0
 17 18  2  0
 17 20  1  0
  3 17  1  0
 18 23  1  0
 19 20  2  0
 19 25  1  0
 20 26  1  0
 21 24  1  0
  4 21  1  0
  5 21  1  0
  6 21  1  0
 22 23  1  0
 22 24  1  0
  7 22  1  0
  8 22  1  0
 23 27  1  0
 23  9  1  6
 10 24  1  0
 11 24  1  0
 12 25  1  0
 13 26  1  0
 14 27  1  0
M  CHG  1  24   1
M  END
>  <SMILES QCArchive>  (1) 
C[NH2+]C[C@@H](c1ccc(c(c1)O)O)O-5

>  <Energy QCArchive>  (1) 
-396395.11497406563

>  <group_name>  (1) 
TST

>  <molecule_index>  (1) 
00001

>  <conformer_index>  (1) 
06

>  <method>  (1) 
qcarchive

>  <basis>  (1) 
xx

>  <program>  (1) 
xx

>  <initial_energy>  (1) 
-1 kilocalorie / mole

>  <final_energy>  (1) 
-396395.1149740656 kilocalorie / mole

$$$$
