TST-00005-11
     RDKit          3D

 22 22  0  0  0  0  0  0  0  0999 V2000
    2.0793   -0.7919   -1.2432 H   0  0  0  0  0  0  0  0  0  0  0  0
   -0.6137   -0.1087    2.0529 H   0  0  0  0  0  0  0  0  0  0  0  0
    0.3819    2.2843   -1.7731 H   0  0  0  0  0  0  0  0  0  0  0  0
   -0.5824    2.6998   -0.4531 H   0  0  0  0  0  0  0  0  0  0  0  0
    4.2360   -4.2301   -0.6868 H   0  0  0  0  0  0  0  0  0  0  0  0
    4.9680   -4.0351    0.8259 H   0  0  0  0  0  0  0  0  0  0  0  0
    1.8437   -0.8668   -0.1869 C   0  0  0  0  0  0  0  0  0  0  0  0
    0.3306   -0.4868    1.6759 C   0  0  0  0  0  0  0  0  0  0  0  0
    0.6545   -0.3593    0.3305 C   0  0  0  0  0  0  0  0  0  0  0  0
    2.7333   -1.4981    0.6780 C   0  0  0  0  0  0  0  0  0  0  0  0
    1.2250   -1.1296    2.5345 C   0  0  0  0  0  0  0  0  0  0  0  0
    2.4420   -1.6383    2.0467 C   0  0  0  0  0  0  0  0  0  0  0  0
    0.1082    2.0465   -0.8205 N   0  0  0  0  0  0  0  0  0  0  0  0
    4.2164   -3.7385    0.2059 N   0  0  0  0  0  0  0  0  0  0  0  0
   -0.3286   -0.1083   -2.1020 O   0  0  0  0  0  0  0  0  0  0  0  0
   -1.7916    0.5244   -0.0778 O   0  0  0  0  0  0  0  0  0  0  0  0
    4.1505   -1.8655   -1.5026 O   0  0  0  0  0  0  0  0  0  0  0  0
    5.3963   -1.5191    0.7062 O   0  0  0  0  0  0  0  0  0  0  0  0
   -0.5028    0.4706   -0.7701 S   0  0  0  0  0  0  0  0  0  0  0  0
    4.2861   -2.0760   -0.0611 S   0  0  0  0  0  0  0  0  0  0  0  0
    0.7894   -1.2869    4.2124 Cl  0  0  0  0  0  0  0  0  0  0  0  0
    3.5367   -2.4404    3.1247 Cl  0  0  0  0  0  0  0  0  0  0  0  0
  7  9  2  0
  7 10  1  0
  1  7  1  0
  8  9  1  0
  8 11  2  0
  2  8  1  0
  9 19  1  0
 10 12  2  0
 10 20  1  0
 11 12  1  0
 11 21  1  0
 12 22  1  0
 13 19  1  0
  3 13  1  0
  4 13  1  0
 14 20  1  0
  5 14  1  0
  6 14  1  0
 15 19  2  0
 16 19  2  0
 17 20  2  0
 18 20  2  0
M  END
>  <SMILES QCArchive>  (1) 
c1c(cc(c(c1S(=O)(=O)N)Cl)Cl)S(=O)(=O)N-10

>  <Energy QCArchive>  (1) 
-1480484.9757576501

>  <group_name>  (1) 
TST

>  <molecule_index>  (1) 
00005

>  <conformer_index>  (1) 
11

>  <method>  (1) 
qcarchive

>  <basis>  (1) 
xx

>  <program>  (1) 
xx

>  <initial_energy>  (1) 
-1 kilocalorie / mole

>  <final_energy>  (1) 
-1480484.97575765 kilocalorie / mole

$$$$
