TST-00005-09
     RDKit          3D

 22 22  0  0  0  0  0  0  0  0999 V2000
    1.8585   -1.6748   -1.4919 H   0  0  0  0  0  0  0  0  0  0  0  0
   -0.2615    0.1817    1.7702 H   0  0  0  0  0  0  0  0  0  0  0  0
    0.1579    1.1949   -2.7155 H   0  0  0  0  0  0  0  0  0  0  0  0
   -0.5895    2.0606   -1.4757 H   0  0  0  0  0  0  0  0  0  0  0  0
    4.0107   -4.9086   -0.1933 H   0  0  0  0  0  0  0  0  0  0  0  0
    4.9758   -4.3047    1.0579 H   0  0  0  0  0  0  0  0  0  0  0  0
    1.7929   -1.4013   -0.4442 C   0  0  0  0  0  0  0  0  0  0  0  0
    0.6033   -0.3584    1.3999 C   0  0  0  0  0  0  0  0  0  0  0  0
    0.7111   -0.6779    0.0518 C   0  0  0  0  0  0  0  0  0  0  0  0
    2.7969   -1.7916    0.4377 C   0  0  0  0  0  0  0  0  0  0  0  0
    1.6108   -0.7619    2.2789 C   0  0  0  0  0  0  0  0  0  0  0  0
    2.7245   -1.4792    1.8070 C   0  0  0  0  0  0  0  0  0  0  0  0
    0.0278    1.2837   -1.7085 N   0  0  0  0  0  0  0  0  0  0  0  0
    4.1417   -4.1644    0.4908 N   0  0  0  0  0  0  0  0  0  0  0  0
   -0.6392   -1.1298   -2.1655 O   0  0  0  0  0  0  0  0  0  0  0  0
   -1.7542    0.1933   -0.2565 O   0  0  0  0  0  0  0  0  0  0  0  0
    3.8420   -2.9135   -1.6949 O   0  0  0  0  0  0  0  0  0  0  0  0
    5.4296   -1.9857    0.0855 O   0  0  0  0  0  0  0  0  0  0  0  0
   -0.5919   -0.1563   -1.0750 S   0  0  0  0  0  0  0  0  0  0  0  0
    4.2008   -2.6754   -0.2966 S   0  0  0  0  0  0  0  0  0  0  0  0
    1.4450   -0.3596    3.9643 Cl  0  0  0  0  0  0  0  0  0  0  0  0
    3.9610   -1.9801    2.9134 Cl  0  0  0  0  0  0  0  0  0  0  0  0
  7  9  2  0
  7 10  1  0
  1  7  1  0
  8  9  1  0
  8 11  2  0
  2  8  1  0
  9 19  1  0
 10 12  2  0
 10 20  1  0
 11 12  1  0
 11 21  1  0
 12 22  1  0
 13 19  1  0
  3 13  1  0
  4 13  1  0
 14 20  1  0
  5 14  1  0
  6 14  1  0
 15 19  2  0
 16 19  2  0
 17 20  2  0
 18 20  2  0
M  END
>  <SMILES QCArchive>  (1) 
c1c(cc(c(c1S(=O)(=O)N)Cl)Cl)S(=O)(=O)N-8

>  <Energy QCArchive>  (1) 
-1480484.9757780668

>  <group_name>  (1) 
TST

>  <molecule_index>  (1) 
00005

>  <conformer_index>  (1) 
09

>  <method>  (1) 
qcarchive

>  <basis>  (1) 
xx

>  <program>  (1) 
xx

>  <initial_energy>  (1) 
-1 kilocalorie / mole

>  <final_energy>  (1) 
-1480484.9757780668 kilocalorie / mole

$$$$
