TST-00001-09
     RDKit          3D

 27 27  0  0  0  0  0  0  0  0999 V2000
    2.6968    0.3392   -1.0906 H   0  0  0  0  0  0  0  0  0  0  0  0
    0.9307    1.2831    0.3803 H   0  0  0  0  0  0  0  0  0  0  0  0
    2.7882   -3.2202    1.3699 H   0  0  0  0  0  0  0  0  0  0  0  0
    6.5453    0.4068    1.3274 H   0  0  0  0  0  0  0  0  0  0  0  0
    6.8401   -0.7797    2.6335 H   0  0  0  0  0  0  0  0  0  0  0  0
    7.6581   -0.9646    1.0520 H   0  0  0  0  0  0  0  0  0  0  0  0
    5.3366   -0.3304   -0.7013 H   0  0  0  0  0  0  0  0  0  0  0  0
    6.2044   -1.8716   -0.9341 H   0  0  0  0  0  0  0  0  0  0  0  0
    4.0970   -3.1301   -0.6277 H   0  0  0  0  0  0  0  0  0  0  0  0
    5.7349   -2.4445    1.3257 H   0  0  0  0  0  0  0  0  0  0  0  0
    4.7170   -1.1769    1.5154 H   0  0  0  0  0  0  0  0  0  0  0  0
   -0.4679    0.8380    2.2836 H   0  0  0  0  0  0  0  0  0  0  0  0
    0.2842   -1.9265    3.4911 H   0  0  0  0  0  0  0  0  0  0  0  0
    3.0794   -2.1422   -2.5180 H   0  0  0  0  0  0  0  0  0  0  0  0
    2.3583   -0.2207   -0.2240 C   0  0  0  0  0  0  0  0  0  0  0  0
    1.3583    0.3074    0.6012 C   0  0  0  0  0  0  0  0  0  0  0  0
    2.4327   -2.2133    1.1592 C   0  0  0  0  0  0  0  0  0  0  0  0
    2.8951   -1.4850    0.0482 C   0  0  0  0  0  0  0  0  0  0  0  0
    0.9039   -0.4142    1.7040 C   0  0  0  0  0  0  0  0  0  0  0  0
    1.4432   -1.6868    1.9906 C   0  0  0  0  0  0  0  0  0  0  0  0
    6.7488   -0.6387    1.5563 C   0  0  0  0  0  0  0  0  0  0  0  0
    5.3639   -1.3878   -0.4335 C   0  0  0  0  0  0  0  0  0  0  0  0
    4.0207   -2.0447   -0.8013 C   0  0  2  0  0  0  0  0  0  0  0  0
    5.5961   -1.4645    1.0548 N   0  0  0  0  0  0  0  0  0  0  0  0
   -0.0657    0.0036    2.5759 O   0  0  0  0  0  0  0  0  0  0  0  0
    1.0094   -2.4095    3.0534 O   0  0  0  0  0  0  0  0  0  0  0  0
    3.9091   -1.7611   -2.1850 O   0  0  0  0  0  0  0  0  0  0  0  0
 15 16  2  0
 15 18  1  0
  1 15  1  0
 16 19  1  0
  2 16  1  0
 17 18  2  0
 17 20  1  0
  3 17  1  0
 18 23  1  0
 19 20  2  0
 19 25  1  0
 20 26  1  0
 21 24  1  0
  4 21  1  0
  5 21  1  0
  6 21  1  0
 22 23  1  0
 22 24  1  0
  7 22  1  0
  8 22  1  0
 23 27  1  0
 23  9  1  6
 10 24  1  0
 11 24  1  0
 12 25  1  0
 13 26  1  0
 14 27  1  0
M  CHG  1  24   1
M  END
>  <SMILES QCArchive>  (1) 
C[NH2+]C[C@@H](c1ccc(c(c1)O)O)O-8

>  <Energy QCArchive>  (1) 
-396391.73905874381

>  <group_name>  (1) 
TST

>  <molecule_index>  (1) 
00001

>  <conformer_index>  (1) 
09

>  <method>  (1) 
qcarchive

>  <basis>  (1) 
xx

>  <program>  (1) 
xx

>  <initial_energy>  (1) 
-1 kilocalorie / mole

>  <final_energy>  (1) 
-396391.7390587438 kilocalorie / mole

$$$$
