TST-00005-12
     RDKit          3D

 22 22  0  0  0  0  0  0  0  0999 V2000
    1.6318   -1.0429   -1.0878 H   0  0  0  0  0  0  0  0  0  0  0  0
   -0.0457    0.5721    2.5400 H   0  0  0  0  0  0  0  0  0  0  0  0
   -2.6474   -0.5932    0.0816 H   0  0  0  0  0  0  0  0  0  0  0  0
   -1.9108   -1.0652   -1.3605 H   0  0  0  0  0  0  0  0  0  0  0  0
    6.0244   -2.1245    0.5496 H   0  0  0  0  0  0  0  0  0  0  0  0
    5.7176   -1.2342   -0.8559 H   0  0  0  0  0  0  0  0  0  0  0  0
    1.6592   -0.9171   -0.0106 C   0  0  0  0  0  0  0  0  0  0  0  0
    0.7208   -0.0090    2.0384 C   0  0  0  0  0  0  0  0  0  0  0  0
    0.6700   -0.2057    0.6637 C   0  0  0  0  0  0  0  0  0  0  0  0
    2.7109   -1.4588    0.7233 C   0  0  0  0  0  0  0  0  0  0  0  0
    1.7843   -0.5483    2.7653 C   0  0  0  0  0  0  0  0  0  0  0  0
    2.7906   -1.2863    2.1168 C   0  0  0  0  0  0  0  0  0  0  0  0
   -1.7679   -0.8171   -0.3823 N   0  0  0  0  0  0  0  0  0  0  0  0
    5.3492   -1.5602    0.0369 N   0  0  0  0  0  0  0  0  0  0  0  0
   -1.3376    1.4958    0.5898 O   0  0  0  0  0  0  0  0  0  0  0  0
   -0.2157    0.7779   -1.6157 O   0  0  0  0  0  0  0  0  0  0  0  0
    4.0494   -3.7387    0.4017 O   0  0  0  0  0  0  0  0  0  0  0  0
    3.5673   -2.2560   -1.6282 O   0  0  0  0  0  0  0  0  0  0  0  0
   -0.7037    0.4920   -0.2668 S   0  0  0  0  0  0  0  0  0  0  0  0
    3.9245   -2.4233   -0.2193 S   0  0  0  0  0  0  0  0  0  0  0  0
    1.8305   -0.2767    4.4841 Cl  0  0  0  0  0  0  0  0  0  0  0  0
    4.1074   -1.9417    3.0334 Cl  0  0  0  0  0  0  0  0  0  0  0  0
  7  9  2  0
  7 10  1  0
  1  7  1  0
  8  9  1  0
  8 11  2  0
  2  8  1  0
  9 19  1  0
 10 12  2  0
 10 20  1  0
 11 12  1  0
 11 21  1  0
 12 22  1  0
 13 19  1  0
  3 13  1  0
  4 13  1  0
 14 20  1  0
  5 14  1  0
  6 14  1  0
 15 19  2  0
 16 19  2  0
 17 20  2  0
 18 20  2  0
M  END
>  <SMILES QCArchive>  (1) 
c1c(cc(c(c1S(=O)(=O)N)Cl)Cl)S(=O)(=O)N-11

>  <Energy QCArchive>  (1) 
-1480484.9757144838

>  <group_name>  (1) 
TST

>  <molecule_index>  (1) 
00005

>  <conformer_index>  (1) 
12

>  <method>  (1) 
qcarchive

>  <basis>  (1) 
xx

>  <program>  (1) 
xx

>  <initial_energy>  (1) 
-1 kilocalorie / mole

>  <final_energy>  (1) 
-1480484.9757144838 kilocalorie / mole

$$$$
