TST-00001-05
     RDKit          3D

 27 27  0  0  0  0  0  0  0  0999 V2000
    3.3761    0.7616    0.1127 H   0  0  0  0  0  0  0  0  0  0  0  0
    1.5683    1.5282    1.6442 H   0  0  0  0  0  0  0  0  0  0  0  0
    1.8419   -3.2705    0.3587 H   0  0  0  0  0  0  0  0  0  0  0  0
    7.9473   -2.1441    0.1903 H   0  0  0  0  0  0  0  0  0  0  0  0
    8.3818   -1.7728   -1.5055 H   0  0  0  0  0  0  0  0  0  0  0  0
    7.7086   -0.4940   -0.4535 H   0  0  0  0  0  0  0  0  0  0  0  0
    5.3396   -2.4091    0.7178 H   0  0  0  0  0  0  0  0  0  0  0  0
    5.3735   -0.6763    0.2980 H   0  0  0  0  0  0  0  0  0  0  0  0
    3.6596   -2.8396   -1.0405 H   0  0  0  0  0  0  0  0  0  0  0  0
    6.0091   -1.3710   -1.9498 H   0  0  0  0  0  0  0  0  0  0  0  0
    6.2741   -2.9023   -1.4219 H   0  0  0  0  0  0  0  0  0  0  0  0
   -0.8359   -0.7268    2.9379 H   0  0  0  0  0  0  0  0  0  0  0  0
   -0.1111   -3.4913    1.7240 H   0  0  0  0  0  0  0  0  0  0  0  0
    3.1364   -0.7900   -2.3281 H   0  0  0  0  0  0  0  0  0  0  0  0
    2.6652    0.0415    0.5093 C   0  0  0  0  0  0  0  0  0  0  0  0
    1.6519    0.4837    1.3603 C   0  0  0  0  0  0  0  0  0  0  0  0
    1.7986   -2.2197    0.6425 C   0  0  0  0  0  0  0  0  0  0  0  0
    2.7475   -1.3098    0.1450 C   0  0  0  0  0  0  0  0  0  0  0  0
    0.7135   -0.4191    1.8641 C   0  0  0  0  0  0  0  0  0  0  0  0
    0.7924   -1.7797    1.4970 C   0  0  0  0  0  0  0  0  0  0  0  0
    7.6898   -1.5572   -0.6911 C   0  0  0  0  0  0  0  0  0  0  0  0
    5.2164   -1.6842   -0.0879 C   0  0  0  0  0  0  0  0  0  0  0  0
    3.8474   -1.7912   -0.7655 C   0  0  2  0  0  0  0  0  0  0  0  0
    6.2978   -1.9207   -1.1246 N   0  0  0  0  0  0  0  0  0  0  0  0
   -0.2642    0.0229    2.6908 O   0  0  0  0  0  0  0  0  0  0  0  0
   -0.1837   -2.5772    2.0414 O   0  0  0  0  0  0  0  0  0  0  0  0
    4.0108   -1.0065   -1.9625 O   0  0  0  0  0  0  0  0  0  0  0  0
 15 16  2  0
 15 18  1  0
  1 15  1  0
 16 19  1  0
  2 16  1  0
 17 18  2  0
 17 20  1  0
  3 17  1  0
 18 23  1  0
 19 20  2  0
 19 25  1  0
 20 26  1  0
 21 24  1  0
  4 21  1  0
  5 21  1  0
  6 21  1  0
 22 23  1  0
 22 24  1  0
  7 22  1  0
  8 22  1  0
 23 27  1  0
 23  9  1  6
 10 24  1  0
 11 24  1  0
 12 25  1  0
 13 26  1  0
 14 27  1  0
M  CHG  1  24   1
M  END
>  <SMILES QCArchive>  (1) 
C[NH2+]C[C@@H](c1ccc(c(c1)O)O)O-4

>  <Energy QCArchive>  (1) 
-396393.49386196205

>  <group_name>  (1) 
TST

>  <molecule_index>  (1) 
00001

>  <conformer_index>  (1) 
05

>  <method>  (1) 
qcarchive

>  <basis>  (1) 
xx

>  <program>  (1) 
xx

>  <initial_energy>  (1) 
-1 kilocalorie / mole

>  <final_energy>  (1) 
-396393.49386196205 kilocalorie / mole

$$$$
