TST-00001-04
     RDKit          3D

 27 27  0  0  0  0  0  0  0  0999 V2000
    4.0110   -1.5208    2.8278 H   0  0  0  0  0  0  0  0  0  0  0  0
    1.9753   -0.5733    3.8660 H   0  0  0  0  0  0  0  0  0  0  0  0
    1.9478   -1.6926   -0.9756 H   0  0  0  0  0  0  0  0  0  0  0  0
    6.2476    0.4757   -2.4728 H   0  0  0  0  0  0  0  0  0  0  0  0
    4.6940    1.2792   -2.8438 H   0  0  0  0  0  0  0  0  0  0  0  0
    5.5245    1.6095   -1.2949 H   0  0  0  0  0  0  0  0  0  0  0  0
    6.2485   -1.3486   -0.7080 H   0  0  0  0  0  0  0  0  0  0  0  0
    5.4999   -0.2516    0.4941 H   0  0  0  0  0  0  0  0  0  0  0  0
    5.0234   -2.6993    0.9285 H   0  0  0  0  0  0  0  0  0  0  0  0
    3.6690    0.0385   -1.0435 H   0  0  0  0  0  0  0  0  0  0  0  0
    4.3483   -1.0086   -2.1043 H   0  0  0  0  0  0  0  0  0  0  0  0
   -0.3072    0.0729    3.4633 H   0  0  0  0  0  0  0  0  0  0  0  0
   -0.9722   -0.3331    0.4551 H   0  0  0  0  0  0  0  0  0  0  0  0
    3.6633   -3.6834   -0.7758 H   0  0  0  0  0  0  0  0  0  0  0  0
    3.1363   -1.3322    2.2104 C   0  0  0  0  0  0  0  0  0  0  0  0
    1.9847   -0.7978    2.8017 C   0  0  0  0  0  0  0  0  0  0  0  0
    1.9998   -1.4043    0.0712 C   0  0  0  0  0  0  0  0  0  0  0  0
    3.1517   -1.6349    0.8461 C   0  0  0  0  0  0  0  0  0  0  0  0
    0.8477   -0.5631    2.0323 C   0  0  0  0  0  0  0  0  0  0  0  0
    0.8501   -0.8723    0.6555 C   0  0  0  0  0  0  0  0  0  0  0  0
    5.3161    0.8564   -2.0546 C   0  0  0  0  0  0  0  0  0  0  0  0
    5.3079   -0.9799   -0.2940 C   0  0  0  0  0  0  0  0  0  0  0  0
    4.4294   -2.1369    0.1975 C   0  0  2  0  0  0  0  0  0  0  0  0
    4.5772   -0.2807   -1.4129 N   0  0  0  0  0  0  0  0  0  0  0  0
   -0.3328   -0.0495    2.5002 O   0  0  0  0  0  0  0  0  0  0  0  0
   -0.2507   -0.6652   -0.1107 O   0  0  0  0  0  0  0  0  0  0  0  0
    4.2103   -2.9084   -0.9869 O   0  0  0  0  0  0  0  0  0  0  0  0
 15 16  2  0
 15 18  1  0
  1 15  1  0
 16 19  1  0
  2 16  1  0
 17 18  2  0
 17 20  1  0
  3 17  1  0
 18 23  1  0
 19 20  2  0
 19 25  1  0
 20 26  1  0
 21 24  1  0
  4 21  1  0
  5 21  1  0
  6 21  1  0
 22 23  1  0
 22 24  1  0
  7 22  1  0
  8 22  1  0
 23 27  1  0
 23  9  1  1
 10 24  1  0
 11 24  1  0
 12 25  1  0
 13 26  1  0
 14 27  1  0
M  CHG  1  24   1
M  END
>  <SMILES QCArchive>  (1) 
C[NH2+]C[C@@H](c1ccc(c(c1)O)O)O-3

>  <Energy QCArchive>  (1) 
-396396.86436187039

>  <group_name>  (1) 
TST

>  <molecule_index>  (1) 
00001

>  <conformer_index>  (1) 
04

>  <method>  (1) 
qcarchive

>  <basis>  (1) 
xx

>  <program>  (1) 
xx

>  <initial_energy>  (1) 
-1 kilocalorie / mole

>  <final_energy>  (1) 
-396396.8643618704 kilocalorie / mole

$$$$
