TST-00001-02
     RDKit          3D

 27 27  0  0  0  0  0  0  0  0999 V2000
    2.7595   -0.2631   -0.9202 H   0  0  0  0  0  0  0  0  0  0  0  0
    0.7401    0.7714    0.1058 H   0  0  0  0  0  0  0  0  0  0  0  0
    2.9885   -3.0371    2.3849 H   0  0  0  0  0  0  0  0  0  0  0  0
    8.1123   -0.6086   -0.1575 H   0  0  0  0  0  0  0  0  0  0  0  0
    8.4150   -1.4743   -1.6943 H   0  0  0  0  0  0  0  0  0  0  0  0
    7.2421   -0.1264   -1.6422 H   0  0  0  0  0  0  0  0  0  0  0  0
    5.8192   -1.1800    1.0959 H   0  0  0  0  0  0  0  0  0  0  0  0
    5.1587   -0.4069   -0.3690 H   0  0  0  0  0  0  0  0  0  0  0  0
    4.5263   -3.2335    0.6405 H   0  0  0  0  0  0  0  0  0  0  0  0
    6.1048   -2.2736   -1.6178 H   0  0  0  0  0  0  0  0  0  0  0  0
    6.9514   -2.7531   -0.2962 H   0  0  0  0  0  0  0  0  0  0  0  0
   -0.5870   -0.4112    3.1682 H   0  0  0  0  0  0  0  0  0  0  0  0
    1.2438   -2.7765    4.0021 H   0  0  0  0  0  0  0  0  0  0  0  0
    3.2612   -3.0671   -1.4824 H   0  0  0  0  0  0  0  0  0  0  0  0
    2.3883   -0.6354    0.0310 C   0  0  0  0  0  0  0  0  0  0  0  0
    1.2517   -0.0532    0.5925 C   0  0  0  0  0  0  0  0  0  0  0  0
    2.5112   -2.1965    1.8829 C   0  0  0  0  0  0  0  0  0  0  0  0
    3.0265   -1.7080    0.6698 C   0  0  0  0  0  0  0  0  0  0  0  0
    0.7429   -0.5296    1.8024 C   0  0  0  0  0  0  0  0  0  0  0  0
    1.3817   -1.6109    2.4465 C   0  0  0  0  0  0  0  0  0  0  0  0
    7.6677   -0.9621   -1.0876 C   0  0  0  0  0  0  0  0  0  0  0  0
    5.4407   -1.3560    0.0882 C   0  0  0  0  0  0  0  0  0  0  0  0
    4.2604   -2.3314    0.0701 C   0  0  2  0  0  0  0  0  0  0  0  0
    6.5618   -1.9251   -0.7600 N   0  0  0  0  0  0  0  0  0  0  0  0
   -0.3601    0.0458    2.3378 O   0  0  0  0  0  0  0  0  0  0  0  0
    0.7941   -2.0044    3.6234 O   0  0  0  0  0  0  0  0  0  0  0  0
    4.1343   -2.6696   -1.3246 O   0  0  0  0  0  0  0  0  0  0  0  0
 15 16  2  0
 15 18  1  0
  1 15  1  0
 16 19  1  0
  2 16  1  0
 17 18  2  0
 17 20  1  0
  3 17  1  0
 18 23  1  0
 19 20  2  0
 19 25  1  0
 20 26  1  0
 21 24  1  0
  4 21  1  0
  5 21  1  0
  6 21  1  0
 22 23  1  0
 22 24  1  0
  7 22  1  0
  8 22  1  0
 23 27  1  0
 23  9  1  1
 10 24  1  0
 11 24  1  0
 12 25  1  0
 13 26  1  0
 14 27  1  0
M  CHG  1  24   1
M  END
>  <SMILES QCArchive>  (1) 
C[NH2+]C[C@@H](c1ccc(c(c1)O)O)O-1

>  <Energy QCArchive>  (1) 
-396393.49364291085

>  <group_name>  (1) 
TST

>  <molecule_index>  (1) 
00001

>  <conformer_index>  (1) 
02

>  <method>  (1) 
qcarchive

>  <basis>  (1) 
xx

>  <program>  (1) 
xx

>  <initial_energy>  (1) 
-1 kilocalorie / mole

>  <final_energy>  (1) 
-396393.49364291085 kilocalorie / mole

$$$$
