TST-00005-03
     RDKit          3D

 22 22  0  0  0  0  0  0  0  0999 V2000
    2.0029   -1.0324   -1.4524 H   0  0  0  0  0  0  0  0  0  0  0  0
   -0.1186    0.0223    2.1492 H   0  0  0  0  0  0  0  0  0  0  0  0
   -2.3694   -0.8288   -0.7441 H   0  0  0  0  0  0  0  0  0  0  0  0
   -1.4816   -1.0079   -2.1652 H   0  0  0  0  0  0  0  0  0  0  0  0
    4.0604   -4.6003   -0.9583 H   0  0  0  0  0  0  0  0  0  0  0  0
    4.9843   -4.3281    0.4308 H   0  0  0  0  0  0  0  0  0  0  0  0
    1.9052   -1.0625   -0.3724 C   0  0  0  0  0  0  0  0  0  0  0  0
    0.7156   -0.4716    1.6625 C   0  0  0  0  0  0  0  0  0  0  0  0
    0.8282   -0.4646    0.2775 C   0  0  0  0  0  0  0  0  0  0  0  0
    2.8803   -1.6948    0.3939 C   0  0  0  0  0  0  0  0  0  0  0  0
    1.6992   -1.1077    2.4232 C   0  0  0  0  0  0  0  0  0  0  0  0
    2.7942   -1.7291    1.7972 C   0  0  0  0  0  0  0  0  0  0  0  0
   -1.4410   -0.9450   -1.1486 N   0  0  0  0  0  0  0  0  0  0  0  0
    4.1706   -4.0434   -0.1116 N   0  0  0  0  0  0  0  0  0  0  0  0
   -1.2151    1.1927    0.2225 O   0  0  0  0  0  0  0  0  0  0  0  0
    0.1829    0.8532   -1.9149 O   0  0  0  0  0  0  0  0  0  0  0  0
    3.9172   -2.3100   -1.9402 O   0  0  0  0  0  0  0  0  0  0  0  0
    5.5124   -1.8591    0.0115 O   0  0  0  0  0  0  0  0  0  0  0  0
   -0.4483    0.3493   -0.6960 S   0  0  0  0  0  0  0  0  0  0  0  0
    4.2718   -2.4111   -0.5242 S   0  0  0  0  0  0  0  0  0  0  0  0
    1.5327   -1.1048    4.1558 Cl  0  0  0  0  0  0  0  0  0  0  0  0
    4.0012   -2.5221    2.7559 Cl  0  0  0  0  0  0  0  0  0  0  0  0
  7  9  2  0
  7 10  1  0
  1  7  1  0
  8  9  1  0
  8 11  2  0
  2  8  1  0
  9 19  1  0
 10 12  2  0
 10 20  1  0
 11 12  1  0
 11 21  1  0
 12 22  1  0
 13 19  1  0
  3 13  1  0
  4 13  1  0
 14 20  1  0
  5 14  1  0
  6 14  1  0
 15 19  2  0
 16 19  2  0
 17 20  2  0
 18 20  2  0
M  END
>  <SMILES QCArchive>  (1) 
c1c(cc(c(c1S(=O)(=O)N)Cl)Cl)S(=O)(=O)N-2

>  <Energy QCArchive>  (1) 
-1480484.6912704785

>  <group_name>  (1) 
TST

>  <molecule_index>  (1) 
00005

>  <conformer_index>  (1) 
03

>  <method>  (1) 
qcarchive

>  <basis>  (1) 
xx

>  <program>  (1) 
xx

>  <initial_energy>  (1) 
xx

>  <final_energy>  (1) 
-1480484.6912704785

$$$$
