TST-00004-01
     RDKit          3D

 48 51  0  0  0  0  0  0  0  0999 V2000
   -1.2381    3.9604    3.9281 H   0  0  0  0  0  0  0  0  0  0  0  0
    1.5823    7.5998    0.2234 H   0  0  0  0  0  0  0  0  0  0  0  0
    2.0066    0.0062   -0.1814 H   0  0  0  0  0  0  0  0  0  0  0  0
    1.8467    1.7323   -0.5642 H   0  0  0  0  0  0  0  0  0  0  0  0
    2.7928    6.2450   -2.5719 H   0  0  0  0  0  0  0  0  0  0  0  0
    1.2113    6.9503   -1.9926 H   0  0  0  0  0  0  0  0  0  0  0  0
    0.1465    4.6946   -1.9543 H   0  0  0  0  0  0  0  0  0  0  0  0
    1.6804    3.9022   -2.5616 H   0  0  0  0  0  0  0  0  0  0  0  0
   -1.5178    0.3537    1.3456 H   0  0  0  0  0  0  0  0  0  0  0  0
   -0.3520   -0.9442    1.0918 H   0  0  0  0  0  0  0  0  0  0  0  0
   -1.2240   -1.0266   -1.0895 H   0  0  0  0  0  0  0  0  0  0  0  0
    2.9128    4.7507   -0.5619 H   0  0  0  0  0  0  0  0  0  0  0  0
    2.7963    1.5782   -4.6346 H   0  0  0  0  0  0  0  0  0  0  0  0
    1.0397    1.8919   -4.8063 H   0  0  0  0  0  0  0  0  0  0  0  0
    1.6649    0.2179   -4.9131 H   0  0  0  0  0  0  0  0  0  0  0  0
   -3.1147    0.4835   -0.7399 H   0  0  0  0  0  0  0  0  0  0  0  0
   -2.3211    0.7885   -2.2810 H   0  0  0  0  0  0  0  0  0  0  0  0
   -2.1535    2.4704    0.1271 H   0  0  0  0  0  0  0  0  0  0  0  0
   -1.2572    2.7108   -1.2212 H   0  0  0  0  0  0  0  0  0  0  0  0
   -0.7197    8.2127    3.7567 H   0  0  0  0  0  0  0  0  0  0  0  0
   -0.6827    3.7731    3.0142 C   0  0  0  0  0  0  0  0  0  0  0  0
    1.0858    6.8461    0.8235 C   0  0  0  0  0  0  0  0  0  0  0  0
   -0.1247    4.8574    2.3037 C   0  0  0  0  0  0  0  0  0  0  0  0
    0.3872    7.2299    1.9402 C   0  0  0  0  0  0  0  0  0  0  0  0
   -0.2844    6.2370    2.7596 C   0  0  0  0  0  0  0  0  0  0  0  0
   -0.4887    2.5003    2.5483 C   0  0  0  0  0  0  0  0  0  0  0  0
    0.6189    4.5378    1.1529 C   0  0  0  0  0  0  0  0  0  0  0  0
    0.2550    2.2618    1.3533 C   0  0  0  0  0  0  0  0  0  0  0  0
    0.2973    0.4643   -1.4086 C   0  0  0  0  0  0  0  0  0  0  0  0
    0.3528    8.6979    2.2527 C   0  0  0  0  0  0  0  0  0  0  0  0
    1.2930    0.8267   -0.3330 C   0  0  0  0  0  0  0  0  0  0  0  0
    1.8743    6.0913   -2.0146 C   0  0  0  0  0  0  0  0  0  0  0  0
    1.2302    4.7213   -2.0099 C   0  0  0  0  0  0  0  0  0  0  0  0
   -0.6721    0.0403    0.7376 C   0  0  0  0  0  0  0  0  0  0  0  0
   -1.0029    0.0005   -0.7780 C   0  0  1  0  0  0  0  0  0  0  0  0
    1.9584    5.2160   -0.7895 C   0  0  0  0  0  0  0  0  0  0  0  0
    1.7948    1.1925   -4.4316 C   0  0  0  0  0  0  0  0  0  0  0  0
   -2.2043    0.8864   -1.1975 C   0  0  0  0  0  0  0  0  0  0  0  0
    0.8002    3.2921    0.7047 N   0  0  0  0  0  0  0  0  0  0  0  0
    0.4323    0.5786   -2.6731 N   0  0  0  0  0  0  0  0  0  0  0  0
    1.1989    5.5607    0.4006 N   0  0  0  0  0  0  0  0  0  0  0  0
    0.4643    0.9853    0.8720 N   0  0  0  0  0  0  0  0  0  0  0  0
   -2.1290    2.3121   -0.8777 N   0  0  0  0  0  0  0  0  0  0  0  0
   -0.9490    6.5202    3.7859 O   0  0  0  0  0  0  0  0  0  0  0  0
    0.9183    9.5236    1.5559 O   0  0  0  0  0  0  0  0  0  0  0  0
   -0.3412    9.0411    3.3470 O   0  0  0  0  0  0  0  0  0  0  0  0
    1.7132    1.0696   -3.0081 O   0  0  0  0  0  0  0  0  0  0  0  0
   -0.9746    1.4435    3.2494 F   0  0  0  0  0  0  0  0  0  0  0  0
 21 23  2  0
 21 26  1  0
  1 21  1  0
 22 24  2  0
 22 41  1  0
  2 22  1  0
 23 27  1  0
 23 25  1  0
 24 25  1  0
 24 30  1  0
 25 44  2  0
 26 28  2  0
 26 48  1  0
 27 39  2  0
 27 41  1  0
 28 39  1  0
 28 42  1  0
 29 31  1  0
 29 35  1  0
 29 40  2  3
 30 46  1  0
 30 45  2  0
 31 42  1  0
  3 31  1  0
  4 31  1  0
 32 33  1  0
 32 36  1  0
  5 32  1  0
  6 32  1  0
 33 36  1  0
  7 33  1  0
  8 33  1  0
 34 35  1  0
 34 42  1  0
  9 34  1  0
 10 34  1  0
 35 38  1  0
 35 11  1  6
 36 41  1  0
 12 36  1  0
 37 47  1  0
 13 37  1  0
 14 37  1  0
 15 37  1  0
 38 43  1  0
 16 38  1  0
 17 38  1  0
 40 47  1  0
 18 43  1  0
 19 43  1  0
 20 46  1  0
M  END
>  <SMILES QCArchive>  (1) 
CO/N=C/1\C[N@](C[C@H]1C[NH3+])c2c(cc3c(=O)c(cn(c3n2)C4CC4)C(=O)[O-])F-6

>  <Energy QCArchive>  (1) 
-861358.71503104747

>  <group_name>  (1) 
TST

>  <molecule_index>  (1) 
00004

>  <conformer_index>  (1) 
01

>  <method>  (1) 
qcarchive

>  <basis>  (1) 
xx

>  <program>  (1) 
xx

>  <initial_energy>  (1) 
-1 kilocalorie / mole

>  <final_energy>  (1) 
-861358.7150310475 kilocalorie / mole

$$$$
