TST-00005-06
     RDKit          3D

 22 22  0  0  0  0  0  0  0  0999 V2000
    2.1842   -1.2969   -1.4949 H   0  0  0  0  0  0  0  0  0  0  0  0
   -0.3903   -0.0541    1.7315 H   0  0  0  0  0  0  0  0  0  0  0  0
   -2.2574   -1.5133   -1.1960 H   0  0  0  0  0  0  0  0  0  0  0  0
   -1.1913   -1.8250   -2.4653 H   0  0  0  0  0  0  0  0  0  0  0  0
    6.2847   -1.7708    0.9749 H   0  0  0  0  0  0  0  0  0  0  0  0
    6.1276   -0.8946   -0.4637 H   0  0  0  0  0  0  0  0  0  0  0  0
    1.9820   -1.2007   -0.4335 C   0  0  0  0  0  0  0  0  0  0  0  0
    0.5373   -0.5015    1.3907 C   0  0  0  0  0  0  0  0  0  0  0  0
    0.7853   -0.6622    0.0328 C   0  0  0  0  0  0  0  0  0  0  0  0
    2.9393   -1.6043    0.4931 C   0  0  0  0  0  0  0  0  0  0  0  0
    1.5071   -0.9009    2.3128 C   0  0  0  0  0  0  0  0  0  0  0  0
    2.7192   -1.4637    1.8751 C   0  0  0  0  0  0  0  0  0  0  0  0
   -1.2810   -1.5906   -1.4774 N   0  0  0  0  0  0  0  0  0  0  0  0
    5.6455   -1.2971    0.3392 N   0  0  0  0  0  0  0  0  0  0  0  0
   -1.4010    0.7280   -0.4337 O   0  0  0  0  0  0  0  0  0  0  0  0
    0.2254    0.2532   -2.3746 O   0  0  0  0  0  0  0  0  0  0  0  0
    4.6408   -3.6526    0.4416 O   0  0  0  0  0  0  0  0  0  0  0  0
    4.3463   -2.1981   -1.6438 O   0  0  0  0  0  0  0  0  0  0  0  0
   -0.4685   -0.1442   -1.1499 S   0  0  0  0  0  0  0  0  0  0  0  0
    4.4435   -2.3522   -0.1921 S   0  0  0  0  0  0  0  0  0  0  0  0
    1.1763   -0.6770    4.0071 Cl  0  0  0  0  0  0  0  0  0  0  0  0
    3.9154   -1.9458    3.0329 Cl  0  0  0  0  0  0  0  0  0  0  0  0
  7  9  2  0
  7 10  1  0
  1  7  1  0
  8  9  1  0
  8 11  2  0
  2  8  1  0
  9 19  1  0
 10 12  2  0
 10 20  1  0
 11 12  1  0
 11 21  1  0
 12 22  1  0
 13 19  1  0
  3 13  1  0
  4 13  1  0
 14 20  1  0
  5 14  1  0
  6 14  1  0
 15 19  2  0
 16 19  2  0
 17 20  2  0
 18 20  2  0
M  END
>  <SMILES QCArchive>  (1) 
c1c(cc(c(c1S(=O)(=O)N)Cl)Cl)S(=O)(=O)N-5

>  <Energy QCArchive>  (1) 
-1480484.9756938072

>  <group_name>  (1) 
TST

>  <molecule_index>  (1) 
00005

>  <conformer_index>  (1) 
06

>  <method>  (1) 
qcarchive

>  <basis>  (1) 
xx

>  <program>  (1) 
xx

>  <initial_energy>  (1) 
xx

>  <final_energy>  (1) 
-1480484.9756938072

$$$$
