TST-00005-10
     RDKit          3D

 22 22  0  0  0  0  0  0  0  0999 V2000
    2.4658   -0.6355   -1.4770 H   0  0  0  0  0  0  0  0  0  0  0  0
   -0.3455    0.0103    1.7264 H   0  0  0  0  0  0  0  0  0  0  0  0
   -1.9989   -0.5752   -1.6045 H   0  0  0  0  0  0  0  0  0  0  0  0
   -0.8268   -0.6878   -2.8121 H   0  0  0  0  0  0  0  0  0  0  0  0
    6.2737   -1.9662    1.1429 H   0  0  0  0  0  0  0  0  0  0  0  0
    6.3047   -0.7731   -0.0559 H   0  0  0  0  0  0  0  0  0  0  0  0
    2.1656   -0.7737   -0.4438 C   0  0  0  0  0  0  0  0  0  0  0  0
    0.5867   -0.4126    1.3673 C   0  0  0  0  0  0  0  0  0  0  0  0
    0.9581   -0.2720    0.0357 C   0  0  0  0  0  0  0  0  0  0  0  0
    3.0052   -1.4501    0.4369 C   0  0  0  0  0  0  0  0  0  0  0  0
    1.4395   -1.0846    2.2457 C   0  0  0  0  0  0  0  0  0  0  0  0
    2.6581   -1.6178    1.7894 C   0  0  0  0  0  0  0  0  0  0  0  0
   -1.0049   -0.6695   -1.8087 N   0  0  0  0  0  0  0  0  0  0  0  0
    5.7256   -1.3131    0.5860 N   0  0  0  0  0  0  0  0  0  0  0  0
   -1.0910    1.3532   -0.2681 O   0  0  0  0  0  0  0  0  0  0  0  0
    0.6854    1.2067   -2.1285 O   0  0  0  0  0  0  0  0  0  0  0  0
    4.5964   -3.5491    0.0426 O   0  0  0  0  0  0  0  0  0  0  0  0
    4.5827   -1.6338   -1.6551 O   0  0  0  0  0  0  0  0  0  0  0  0
   -0.1450    0.5968   -1.0903 S   0  0  0  0  0  0  0  0  0  0  0  0
    4.5290   -2.1265   -0.2786 S   0  0  0  0  0  0  0  0  0  0  0  0
    0.9560   -1.2358    3.9111 Cl  0  0  0  0  0  0  0  0  0  0  0  0
    3.7086   -2.4409    2.8952 Cl  0  0  0  0  0  0  0  0  0  0  0  0
  7  9  2  0
  7 10  1  0
  1  7  1  0
  8  9  1  0
  8 11  2  0
  2  8  1  0
  9 19  1  0
 10 12  2  0
 10 20  1  0
 11 12  1  0
 11 21  1  0
 12 22  1  0
 13 19  1  0
  3 13  1  0
  4 13  1  0
 14 20  1  0
  5 14  1  0
  6 14  1  0
 15 19  2  0
 16 19  2  0
 17 20  2  0
 18 20  2  0
M  END
>  <SMILES QCArchive>  (1) 
c1c(cc(c(c1S(=O)(=O)N)Cl)Cl)S(=O)(=O)N-9

>  <Energy QCArchive>  (1) 
-1480484.9757790032

>  <group_name>  (1) 
TST

>  <molecule_index>  (1) 
00005

>  <conformer_index>  (1) 
10

>  <method>  (1) 
qcarchive

>  <basis>  (1) 
xx

>  <program>  (1) 
xx

>  <initial_energy>  (1) 
-1 kilocalorie / mole

>  <final_energy>  (1) 
-1480484.9757790032 kilocalorie / mole

$$$$
