TST-00005-02
     RDKit          3D

 22 22  0  0  0  0  0  0  0  0999 V2000
    1.7086   -1.0012   -1.2242 H   0  0  0  0  0  0  0  0  0  0  0  0
   -0.4779    0.0404    2.3370 H   0  0  0  0  0  0  0  0  0  0  0  0
   -0.0739    2.1308   -1.7363 H   0  0  0  0  0  0  0  0  0  0  0  0
   -0.7837    2.6039   -0.2837 H   0  0  0  0  0  0  0  0  0  0  0  0
    4.4624   -1.5519   -2.2239 H   0  0  0  0  0  0  0  0  0  0  0  0
    3.5842   -2.9918   -2.2554 H   0  0  0  0  0  0  0  0  0  0  0  0
    1.6311   -0.9799   -0.1442 C   0  0  0  0  0  0  0  0  0  0  0  0
    0.3994   -0.3921    1.8680 C   0  0  0  0  0  0  0  0  0  0  0  0
    0.5339   -0.3962    0.4854 C   0  0  0  0  0  0  0  0  0  0  0  0
    2.6245   -1.5582    0.6409 C   0  0  0  0  0  0  0  0  0  0  0  0
    1.4012   -0.9721    2.6485 C   0  0  0  0  0  0  0  0  0  0  0  0
    2.5291   -1.5587    2.0462 C   0  0  0  0  0  0  0  0  0  0  0  0
   -0.1648    1.9349   -0.7402 N   0  0  0  0  0  0  0  0  0  0  0  0
    3.7134   -2.0925   -1.7937 N   0  0  0  0  0  0  0  0  0  0  0  0
   -0.7190   -0.2878   -1.8325 O   0  0  0  0  0  0  0  0  0  0  0  0
   -1.9537    0.4460    0.3070 O   0  0  0  0  0  0  0  0  0  0  0  0
    5.2366   -1.5243    0.1576 O   0  0  0  0  0  0  0  0  0  0  0  0
    3.9923   -3.7692    0.1039 O   0  0  0  0  0  0  0  0  0  0  0  0
   -0.7497    0.3614   -0.5211 S   0  0  0  0  0  0  0  0  0  0  0  0
    4.0612   -2.3334   -0.1588 S   0  0  0  0  0  0  0  0  0  0  0  0
    1.2125   -0.9547    4.3783 Cl  0  0  0  0  0  0  0  0  0  0  0  0
    3.7650   -2.2706    3.0257 Cl  0  0  0  0  0  0  0  0  0  0  0  0
  7  9  2  0
  7 10  1  0
  1  7  1  0
  8  9  1  0
  8 11  2  0
  2  8  1  0
  9 19  1  0
 10 12  2  0
 10 20  1  0
 11 12  1  0
 11 21  1  0
 12 22  1  0
 13 19  1  0
  3 13  1  0
  4 13  1  0
 14 20  1  0
  5 14  1  0
  6 14  1  0
 15 19  2  0
 16 19  2  0
 17 20  2  0
 18 20  2  0
M  END
>  <SMILES QCArchive>  (1) 
c1c(cc(c(c1S(=O)(=O)N)Cl)Cl)S(=O)(=O)N-1

>  <Energy QCArchive>  (1) 
-1480483.100314812

>  <group_name>  (1) 
TST

>  <molecule_index>  (1) 
00005

>  <conformer_index>  (1) 
02

>  <method>  (1) 
qcarchive

>  <basis>  (1) 
xx

>  <program>  (1) 
xx

>  <initial_energy>  (1) 
xx

>  <final_energy>  (1) 
-1480483.100314812

$$$$
