TST-00002-01
     RDKit          3D

 48 51  0  0  0  0  0  0  0  0999 V2000
    1.9800    3.5328    4.8298 H   0  0  0  0  0  0  0  0  0  0  0  0
   -0.3588    7.2335    0.9646 H   0  0  0  0  0  0  0  0  0  0  0  0
   -1.1437    1.0220    0.6245 H   0  0  0  0  0  0  0  0  0  0  0  0
   -1.2345   -0.2016    1.9168 H   0  0  0  0  0  0  0  0  0  0  0  0
   -2.1307    6.0020   -1.4956 H   0  0  0  0  0  0  0  0  0  0  0  0
   -2.4162    6.3335    0.2795 H   0  0  0  0  0  0  0  0  0  0  0  0
   -2.4921    3.8794    0.7727 H   0  0  0  0  0  0  0  0  0  0  0  0
   -2.2293    3.4842   -0.9984 H   0  0  0  0  0  0  0  0  0  0  0  0
    2.6470    0.3568    0.6010 H   0  0  0  0  0  0  0  0  0  0  0  0
    1.4110    1.1758   -0.3974 H   0  0  0  0  0  0  0  0  0  0  0  0
    1.2981   -1.0983   -1.3330 H   0  0  0  0  0  0  0  0  0  0  0  0
   -0.0479    4.7270   -0.9475 H   0  0  0  0  0  0  0  0  0  0  0  0
   -4.4396   -1.9858   -0.3347 H   0  0  0  0  0  0  0  0  0  0  0  0
   -3.2483   -3.3033   -0.5759 H   0  0  0  0  0  0  0  0  0  0  0  0
   -3.4521   -2.0366   -1.8291 H   0  0  0  0  0  0  0  0  0  0  0  0
    2.8461   -2.1586    0.2989 H   0  0  0  0  0  0  0  0  0  0  0  0
    1.3884   -3.1281    0.0566 H   0  0  0  0  0  0  0  0  0  0  0  0
    2.3227   -2.4454    2.4643 H   0  0  0  0  0  0  0  0  0  0  0  0
    0.7305   -2.6676    2.2073 H   0  0  0  0  0  0  0  0  0  0  0  0
    1.0548   -0.1785    2.1693 H   0  0  0  0  0  0  0  0  0  0  0  0
    1.5205    3.3307    3.8653 C   0  0  0  0  0  0  0  0  0  0  0  0
    0.0614    6.4660    1.6034 C   0  0  0  0  0  0  0  0  0  0  0  0
    1.0106    4.4016    3.1322 C   0  0  0  0  0  0  0  0  0  0  0  0
    0.6814    6.8297    2.7581 C   0  0  0  0  0  0  0  0  0  0  0  0
    1.1448    5.7924    3.6747 C   0  0  0  0  0  0  0  0  0  0  0  0
    1.4198    2.0543    3.3353 C   0  0  0  0  0  0  0  0  0  0  0  0
    0.4016    4.1256    1.8671 C   0  0  0  0  0  0  0  0  0  0  0  0
    0.8152    1.8967    2.0945 C   0  0  0  0  0  0  0  0  0  0  0  0
   -0.3774   -0.9236    0.0300 C   0  0  0  0  0  0  0  0  0  0  0  0
    0.8806    8.3534    2.9859 C   0  0  0  0  0  0  0  0  0  0  0  0
   -0.6583    0.1442    1.0572 C   0  0  0  0  0  0  0  0  0  0  0  0
   -2.0134    5.6624   -0.4716 C   0  0  0  0  0  0  0  0  0  0  0  0
   -2.0661    4.1792   -0.1796 C   0  0  0  0  0  0  0  0  0  0  0  0
    1.6047    0.3428    0.2797 C   0  0  0  0  0  0  0  0  0  0  0  0
    1.1106   -1.0060   -0.2607 C   0  0  1  0  0  0  0  0  0  0  0  0
   -0.7482    4.9140   -0.1362 C   0  0  0  0  0  0  0  0  0  0  0  0
   -3.4679   -2.2470   -0.7561 C   0  0  0  0  0  0  0  0  0  0  0  0
    1.7675   -2.1915    0.4789 C   0  0  0  0  0  0  0  0  0  0  0  0
    0.3227    2.8763    1.3654 N   0  0  0  0  0  0  0  0  0  0  0  0
   -1.2348   -1.6802   -0.5361 N   0  0  0  0  0  0  0  0  0  0  0  0
   -0.1145    5.1582    1.1400 N   0  0  0  0  0  0  0  0  0  0  0  0
    1.5261   -2.0899    1.9404 N   0  0  0  0  0  0  0  0  0  0  0  0
    0.7267    0.5538    1.5007 N   0  0  1  0  0  0  0  0  0  0  0  0
   -0.1383    9.0486    2.7471 O   0  0  0  0  0  0  0  0  0  0  0  0
    1.5941    5.9513    4.8113 O   0  0  0  0  0  0  0  0  0  0  0  0
    2.0525    8.6546    3.2986 O   0  0  0  0  0  0  0  0  0  0  0  0
   -2.5222   -1.4116   -0.0666 O   0  0  0  0  0  0  0  0  0  0  0  0
    1.8957    0.9504    3.9828 F   0  0  0  0  0  0  0  0  0  0  0  0
 21 23  2  0
 21 26  1  0
  1 21  1  0
 22 24  2  0
 22 41  1  0
  2 22  1  0
 23 27  1  0
 23 25  1  0
 24 25  1  0
 24 30  1  0
 25 45  2  0
 26 28  2  0
 26 48  1  0
 27 39  2  0
 27 41  1  0
 28 39  1  0
 28 43  1  0
 29 31  1  0
 29 35  1  0
 29 40  2  3
 30 44  1  0
 30 46  2  0
 31 43  1  0
  3 31  1  0
  4 31  1  0
 32 33  1  0
 32 36  1  0
  5 32  1  0
  6 32  1  0
 33 36  1  0
  7 33  1  0
  8 33  1  0
 34 35  1  0
 34 43  1  0
  9 34  1  0
 10 34  1  0
 35 38  1  0
 35 11  1  6
 36 41  1  0
 12 36  1  0
 37 47  1  0
 13 37  1  0
 14 37  1  0
 15 37  1  0
 38 42  1  0
 16 38  1  0
 17 38  1  0
 40 47  1  0
 18 42  1  0
 19 42  1  0
 43 20  1  1
M  CHG  2  43   1  44  -1
M  END
>  <SMILES QCArchive>  (1) 
CO/N=C/1\C[N@](C[C@H]1C[NH3+])c2c(cc3c(=O)c(cn(c3n2)C4CC4)C(=O)[O-])F-3

>  <Energy QCArchive>  (1) 
-861289.51068369381

>  <group_name>  (1) 
TST

>  <molecule_index>  (1) 
00002

>  <conformer_index>  (1) 
01

>  <method>  (1) 
qcarchive

>  <basis>  (1) 
xx

>  <program>  (1) 
xx

>  <initial_energy>  (1) 
xx

>  <final_energy>  (1) 
-861289.51068369381

$$$$
