TST-00001-03
     RDKit          3D

 27 27  0  0  0  0  0  0  0  0999 V2000
    1.9861   -1.6673   -1.0311 H   0  0  0  0  0  0  0  0  0  0  0  0
   -0.0214   -0.5564   -0.0639 H   0  0  0  0  0  0  0  0  0  0  0  0
    4.0300   -1.2145    2.7478 H   0  0  0  0  0  0  0  0  0  0  0  0
    6.3702    0.4067   -2.5591 H   0  0  0  0  0  0  0  0  0  0  0  0
    4.8325    1.2041   -3.0025 H   0  0  0  0  0  0  0  0  0  0  0  0
    5.6254    1.5927   -1.4479 H   0  0  0  0  0  0  0  0  0  0  0  0
    6.2990   -1.3723   -0.7306 H   0  0  0  0  0  0  0  0  0  0  0  0
    5.5674   -0.1925    0.4015 H   0  0  0  0  0  0  0  0  0  0  0  0
    5.0062   -2.5960    0.9599 H   0  0  0  0  0  0  0  0  0  0  0  0
    3.7546    0.0458   -1.1720 H   0  0  0  0  0  0  0  0  0  0  0  0
    4.4448   -1.0460   -2.1792 H   0  0  0  0  0  0  0  0  0  0  0  0
   -0.0924    0.5178    3.3108 H   0  0  0  0  0  0  0  0  0  0  0  0
    2.6678   -0.2779    4.4813 H   0  0  0  0  0  0  0  0  0  0  0  0
    3.6491   -3.6328   -0.7134 H   0  0  0  0  0  0  0  0  0  0  0  0
    2.0211   -1.2927   -0.0112 C   0  0  0  0  0  0  0  0  0  0  0  0
    0.8786   -0.6885    0.5288 C   0  0  0  0  0  0  0  0  0  0  0  0
    3.1554   -1.0608    2.1163 C   0  0  0  0  0  0  0  0  0  0  0  0
    3.1664   -1.4818    0.7745 C   0  0  0  0  0  0  0  0  0  0  0  0
    0.8696   -0.2627    1.8553 C   0  0  0  0  0  0  0  0  0  0  0  0
    2.0203   -0.4618    2.6531 C   0  0  0  0  0  0  0  0  0  0  0  0
    5.4311    0.8100   -2.1809 C   0  0  0  0  0  0  0  0  0  0  0  0
    5.3643   -0.9555   -0.3503 C   0  0  0  0  0  0  0  0  0  0  0  0
    4.4425   -2.0580    0.1869 C   0  0  2  0  0  0  0  0  0  0  0  0
    4.6675   -0.2944   -1.5120 N   0  0  0  0  0  0  0  0  0  0  0  0
   -0.2404    0.3192    2.3681 O   0  0  0  0  0  0  0  0  0  0  0  0
    1.8993   -0.0234    3.9453 O   0  0  0  0  0  0  0  0  0  0  0  0
    4.2242   -2.8879   -0.9563 O   0  0  0  0  0  0  0  0  0  0  0  0
 15 16  2  0
 15 18  1  0
  1 15  1  0
 16 19  1  0
  2 16  1  0
 17 18  2  0
 17 20  1  0
  3 17  1  0
 18 23  1  0
 19 20  2  0
 19 25  1  0
 20 26  1  0
 21 24  1  0
  4 21  1  0
  5 21  1  0
  6 21  1  0
 22 23  1  0
 22 24  1  0
  7 22  1  0
  8 22  1  0
 23 27  1  0
 23  9  1  1
 10 24  1  0
 11 24  1  0
 12 25  1  0
 13 26  1  0
 14 27  1  0
M  CHG  1  24   1
M  END
>  <SMILES QCArchive>  (1) 
C[NH2+]C[C@@H](c1ccc(c(c1)O)O)O-2

>  <Energy QCArchive>  (1) 
-396395.36419510853

>  <group_name>  (1) 
TST

>  <molecule_index>  (1) 
00001

>  <conformer_index>  (1) 
03

>  <method>  (1) 
qcarchive

>  <basis>  (1) 
xx

>  <program>  (1) 
xx

>  <initial_energy>  (1) 
xx

>  <final_energy>  (1) 
-396395.36419510853

$$$$
