TST-00001-08
     RDKit          3D

 27 27  0  0  0  0  0  0  0  0999 V2000
    3.0923   -2.9130    2.2636 H   0  0  0  0  0  0  0  0  0  0  0  0
    1.3146   -1.7678    3.5473 H   0  0  0  0  0  0  0  0  0  0  0  0
    2.3827   -0.2624   -1.0648 H   0  0  0  0  0  0  0  0  0  0  0  0
    7.2817   -1.9981    1.5567 H   0  0  0  0  0  0  0  0  0  0  0  0
    6.4602   -1.3177    2.9949 H   0  0  0  0  0  0  0  0  0  0  0  0
    5.7341   -2.6928    2.1190 H   0  0  0  0  0  0  0  0  0  0  0  0
    5.0339   -0.4627   -0.8768 H   0  0  0  0  0  0  0  0  0  0  0  0
    6.1542   -1.8289   -0.6446 H   0  0  0  0  0  0  0  0  0  0  0  0
    4.3077   -3.2194    0.2334 H   0  0  0  0  0  0  0  0  0  0  0  0
    4.6557   -0.6033    1.5707 H   0  0  0  0  0  0  0  0  0  0  0  0
    6.0921    0.0552    1.0690 H   0  0  0  0  0  0  0  0  0  0  0  0
   -0.3271   -0.1051    3.4879 H   0  0  0  0  0  0  0  0  0  0  0  0
    0.6193    1.2414   -0.7574 H   0  0  0  0  0  0  0  0  0  0  0  0
    3.0424   -3.0663   -1.7330 H   0  0  0  0  0  0  0  0  0  0  0  0
    2.5814   -2.0606    1.8210 C   0  0  0  0  0  0  0  0  0  0  0  0
    1.5622   -1.4238    2.5454 C   0  0  0  0  0  0  0  0  0  0  0  0
    2.1650   -0.5734   -0.0446 C   0  0  0  0  0  0  0  0  0  0  0  0
    2.8898   -1.6397    0.5241 C   0  0  0  0  0  0  0  0  0  0  0  0
    0.8403   -0.3707    1.9849 C   0  0  0  0  0  0  0  0  0  0  0  0
    1.1426    0.0551    0.6626 C   0  0  0  0  0  0  0  0  0  0  0  0
    6.3188   -1.7808    2.0182 C   0  0  0  0  0  0  0  0  0  0  0  0
    5.2636   -1.3315   -0.2577 C   0  0  0  0  0  0  0  0  0  0  0  0
    4.0364   -2.2661   -0.2424 C   0  0  2  0  0  0  0  0  0  0  0  0
    5.5680   -0.8232    1.1333 N   0  0  0  0  0  0  0  0  0  0  0  0
   -0.1621    0.2888    2.6152 O   0  0  0  0  0  0  0  0  0  0  0  0
    0.3910    1.0725    0.1715 O   0  0  0  0  0  0  0  0  0  0  0  0
    3.7866   -2.4501   -1.6274 O   0  0  0  0  0  0  0  0  0  0  0  0
 15 16  2  0
 15 18  1  0
  1 15  1  0
 16 19  1  0
  2 16  1  0
 17 18  2  0
 17 20  1  0
  3 17  1  0
 18 23  1  0
 19 20  2  0
 19 25  1  0
 20 26  1  0
 21 24  1  0
  4 21  1  0
  5 21  1  0
  6 21  1  0
 22 23  1  0
 22 24  1  0
  7 22  1  0
  8 22  1  0
 23 27  1  0
 23  9  1  1
 10 24  1  0
 11 24  1  0
 12 25  1  0
 13 26  1  0
 14 27  1  0
M  CHG  1  24   1
M  END
>  <SMILES QCArchive>  (1) 
C[NH2+]C[C@@H](c1ccc(c(c1)O)O)O-7

>  <Energy QCArchive>  (1) 
-396385.99419733125

>  <group_name>  (1) 
TST

>  <molecule_index>  (1) 
00001

>  <conformer_index>  (1) 
08

>  <method>  (1) 
qcarchive

>  <basis>  (1) 
xx

>  <program>  (1) 
xx

>  <initial_energy>  (1) 
xx

>  <final_energy>  (1) 
-396385.99419733125

$$$$
