TST-00005-10
     RDKit          3D

 22 22  0  0  0  0  0  0  0  0999 V2000
    2.4715   -0.5677   -1.4820 H   0  0  0  0  0  0  0  0  0  0  0  0
   -0.3954   -0.1609    1.6953 H   0  0  0  0  0  0  0  0  0  0  0  0
   -2.0383    0.0482   -1.8165 H   0  0  0  0  0  0  0  0  0  0  0  0
   -0.8193   -1.0076   -2.2765 H   0  0  0  0  0  0  0  0  0  0  0  0
    5.9629   -1.7188    1.3169 H   0  0  0  0  0  0  0  0  0  0  0  0
    6.4843   -1.1401   -0.1697 H   0  0  0  0  0  0  0  0  0  0  0  0
    2.1733   -0.7527   -0.4482 C   0  0  0  0  0  0  0  0  0  0  0  0
    0.5661   -0.5206    1.3316 C   0  0  0  0  0  0  0  0  0  0  0  0
    0.9364   -0.2942    0.0049 C   0  0  0  0  0  0  0  0  0  0  0  0
    3.0350   -1.4444    0.4108 C   0  0  0  0  0  0  0  0  0  0  0  0
    1.4143   -1.2024    2.2073 C   0  0  0  0  0  0  0  0  0  0  0  0
    2.6607   -1.6700    1.7491 C   0  0  0  0  0  0  0  0  0  0  0  0
   -1.2917   -0.5597   -1.5024 N   0  0  0  0  0  0  0  0  0  0  0  0
    5.7556   -1.1128    0.5333 N   0  0  0  0  0  0  0  0  0  0  0  0
   -0.9384    1.6621   -0.4571 O   0  0  0  0  0  0  0  0  0  0  0  0
    0.4293    0.9551   -2.3827 O   0  0  0  0  0  0  0  0  0  0  0  0
    4.9539   -3.4006    0.1349 O   0  0  0  0  0  0  0  0  0  0  0  0
    4.7986   -1.7569   -1.6687 O   0  0  0  0  0  0  0  0  0  0  0  0
   -0.1795    0.5953   -1.1051 S   0  0  0  0  0  0  0  0  0  0  0  0
    4.6192   -2.0296   -0.2436 S   0  0  0  0  0  0  0  0  0  0  0  0
    0.9041   -1.4582    3.8633 Cl  0  0  0  0  0  0  0  0  0  0  0  0
    3.7264   -2.5141    2.8617 Cl  0  0  0  0  0  0  0  0  0  0  0  0
  7  9  2  0
  7 10  1  0
  1  7  1  0
  8  9  1  0
  8 11  2  0
  2  8  1  0
  9 19  1  0
 10 12  2  0
 10 20  1  0
 11 12  1  0
 11 21  1  0
 12 22  1  0
 13 19  1  0
  3 13  1  0
  4 13  1  0
 14 20  1  0
  5 14  1  0
  6 14  1  0
 15 19  2  0
 16 19  2  0
 17 20  2  0
 18 20  2  0
M  END
>  <SMILES QCArchive>  (1) 
c1c(cc(c(c1S(=O)(=O)N)Cl)Cl)S(=O)(=O)N-9

>  <Energy QCArchive>  (1) 
-1480484.9757790032

>  <Energy FFXML>  (1) 
-271.11869557646031

>  <group_name>  (1) 
TST

>  <molecule_index>  (1) 
00005

>  <conformer_index>  (1) 
10

>  <method>  (1) 
openff-1.2.0

>  <basis>  (1) 
xx

>  <program>  (1) 
xx

>  <initial_energy>  (1) 
-1 kilocalorie / mole

>  <final_energy>  (1) 
-271.1186955764603 kilocalorie / mole

$$$$
