TST-00003-01
     RDKit          3D

 48 51  0  0  0  0  0  0  0  0999 V2000
   -2.1530   -3.6699    4.0589 H   0  0  0  0  0  0  0  0  0  0  0  0
   -6.4897   -1.9528    0.3742 H   0  0  0  0  0  0  0  0  0  0  0  0
    0.3033    1.9646    1.9713 H   0  0  0  0  0  0  0  0  0  0  0  0
   -1.3746    1.6395    1.4286 H   0  0  0  0  0  0  0  0  0  0  0  0
   -4.5226    2.3533    1.2515 H   0  0  0  0  0  0  0  0  0  0  0  0
   -4.8325    1.1820    2.6508 H   0  0  0  0  0  0  0  0  0  0  0  0
   -6.9378    0.3724    1.5106 H   0  0  0  0  0  0  0  0  0  0  0  0
   -6.6305    1.5319    0.1032 H   0  0  0  0  0  0  0  0  0  0  0  0
    0.8845   -1.8877    1.3513 H   0  0  0  0  0  0  0  0  0  0  0  0
    1.8804   -0.4665    1.7709 H   0  0  0  0  0  0  0  0  0  0  0  0
    1.8829   -0.1233   -0.5364 H   0  0  0  0  0  0  0  0  0  0  0  0
   -4.4117    0.4120   -0.3602 H   0  0  0  0  0  0  0  0  0  0  0  0
   -1.0682    4.9162   -1.4919 H   0  0  0  0  0  0  0  0  0  0  0  0
   -0.6597    3.7009   -2.7260 H   0  0  0  0  0  0  0  0  0  0  0  0
    0.5927    4.2886   -1.6028 H   0  0  0  0  0  0  0  0  0  0  0  0
    0.3635   -2.2467   -0.8654 H   0  0  0  0  0  0  0  0  0  0  0  0
    0.4054   -1.0010   -2.1162 H   0  0  0  0  0  0  0  0  0  0  0  0
   -1.6281   -0.1044   -1.3788 H   0  0  0  0  0  0  0  0  0  0  0  0
   -1.6433   -0.9197    0.0356 H   0  0  0  0  0  0  0  0  0  0  0  0
   -1.9280   -1.7523   -1.3747 H   0  0  0  0  0  0  0  0  0  0  0  0
   -2.2283   -2.8065    3.3985 C   0  0  0  0  0  0  0  0  0  0  0  0
   -5.6462   -2.0846    1.0555 C   0  0  0  0  0  0  0  0  0  0  0  0
   -3.3990   -2.5466    2.6871 C   0  0  0  0  0  0  0  0  0  0  0  0
   -5.6001   -3.2483    1.7756 C   0  0  0  0  0  0  0  0  0  0  0  0
   -4.5362   -3.4525    2.7262 C   0  0  0  0  0  0  0  0  0  0  0  0
   -1.1437   -1.9624    3.2164 C   0  0  0  0  0  0  0  0  0  0  0  0
   -3.4779   -1.4163    1.8840 C   0  0  0  0  0  0  0  0  0  0  0  0
   -1.2852   -0.8813    2.3292 C   0  0  0  0  0  0  0  0  0  0  0  0
    0.1838    1.0551    0.0394 C   0  0  0  0  0  0  0  0  0  0  0  0
   -6.5741   -4.2742    1.5158 C   0  0  0  0  0  0  0  0  0  0  0  0
   -0.3436    1.2686    1.4278 C   0  0  0  0  0  0  0  0  0  0  0  0
   -4.9430    1.3995    1.5833 C   0  0  0  0  0  0  0  0  0  0  0  0
   -6.2064    0.9070    0.8949 C   0  0  0  0  0  0  0  0  0  0  0  0
    0.9466   -0.7940    1.2978 C   0  0  0  0  0  0  0  0  0  0  0  0
    0.8715   -0.2692   -0.1447 C   0  0  1  0  0  0  0  0  0  0  0  0
   -4.8720    0.2257    0.6153 C   0  0  0  0  0  0  0  0  0  0  0  0
   -0.4657    4.0269   -1.6994 C   0  0  0  0  0  0  0  0  0  0  0  0
    0.0868   -1.2052   -1.0838 C   0  0  0  0  0  0  0  0  0  0  0  0
   -2.4164   -0.6324    1.6707 N   0  0  0  0  0  0  0  0  0  0  0  0
   -0.0435    1.8143   -1.0043 N   0  0  0  0  0  0  0  0  0  0  0  0
   -4.6474   -1.1113    1.1853 N   0  0  0  0  0  0  0  0  0  0  0  0
   -0.1925   -0.1153    1.9284 N   0  0  0  0  0  0  0  0  0  0  0  0
   -1.3742   -1.0024   -0.9600 N   0  0  0  0  0  0  0  0  0  0  0  0
   -6.1567   -5.4354    1.2921 O   0  0  0  0  0  0  0  0  0  0  0  0
   -4.5590   -4.3368    3.5730 O   0  0  0  0  0  0  0  0  0  0  0  0
   -7.7576   -3.8860    1.3438 O   0  0  0  0  0  0  0  0  0  0  0  0
   -0.8026    2.9875   -0.7785 O   0  0  0  0  0  0  0  0  0  0  0  0
    0.0253   -2.2188    3.8560 F   0  0  0  0  0  0  0  0  0  0  0  0
 21 23  2  0
 21 26  1  0
  1 21  1  0
 22 24  2  0
 22 41  1  0
  2 22  1  0
 23 27  1  0
 23 25  1  0
 24 25  1  0
 24 30  1  0
 25 45  2  0
 26 28  2  0
 26 48  1  0
 27 39  2  0
 27 41  1  0
 28 39  1  0
 28 42  1  0
 29 31  1  0
 29 35  1  0
 29 40  2  3
 30 44  1  0
 30 46  2  0
 31 42  1  0
  3 31  1  0
  4 31  1  0
 32 33  1  0
 32 36  1  0
  5 32  1  0
  6 32  1  0
 33 36  1  0
  7 33  1  0
  8 33  1  0
 34 35  1  0
 34 42  1  0
  9 34  1  0
 10 34  1  0
 35 38  1  0
 35 11  1  6
 36 41  1  0
 12 36  1  0
 37 47  1  0
 13 37  1  0
 14 37  1  0
 15 37  1  0
 38 43  1  0
 16 38  1  0
 17 38  1  0
 40 47  1  0
 18 43  1  0
 19 43  1  0
 20 43  1  0
M  CHG  2  43   1  44  -1
M  END
>  <SMILES QCArchive>  (1) 
CO/N=C/1\C[N@](C[C@H]1C[NH3+])c2c(cc3c(=O)c(cn(c3n2)C4CC4)C(=O)[O-])F-5

>  <Energy QCArchive>  (1) 
-861271.631299317

>  <Energy FFXML>  (1) 
-97.329345264759453

>  <group_name>  (1) 
TST

>  <molecule_index>  (1) 
00003

>  <conformer_index>  (1) 
01

>  <method>  (1) 
openff-1.2.0

>  <basis>  (1) 
xx

>  <program>  (1) 
xx

>  <initial_energy>  (1) 
-1 kilocalorie / mole

>  <final_energy>  (1) 
-97.32934526475945 kilocalorie / mole

$$$$
