TST-00001-03
     RDKit          3D

 27 27  0  0  0  0  0  0  0  0999 V2000
    1.9111   -1.5796   -1.0441 H   0  0  0  0  0  0  0  0  0  0  0  0
   -0.1039   -0.6183    0.0031 H   0  0  0  0  0  0  0  0  0  0  0  0
    4.0112   -1.1491    2.7148 H   0  0  0  0  0  0  0  0  0  0  0  0
    6.5151    0.1995   -2.5851 H   0  0  0  0  0  0  0  0  0  0  0  0
    5.0965    1.0665   -3.2000 H   0  0  0  0  0  0  0  0  0  0  0  0
    5.8456    1.5652   -1.6714 H   0  0  0  0  0  0  0  0  0  0  0  0
    6.2996   -1.1985   -0.5269 H   0  0  0  0  0  0  0  0  0  0  0  0
    5.3787   -0.0624    0.4780 H   0  0  0  0  0  0  0  0  0  0  0  0
    4.9616   -2.5464    0.9134 H   0  0  0  0  0  0  0  0  0  0  0  0
    3.8098    0.2133   -1.2936 H   0  0  0  0  0  0  0  0  0  0  0  0
    4.4511   -1.0600   -2.1162 H   0  0  0  0  0  0  0  0  0  0  0  0
   -0.1236    0.3775    3.4168 H   0  0  0  0  0  0  0  0  0  0  0  0
    2.7720   -0.3869    4.4722 H   0  0  0  0  0  0  0  0  0  0  0  0
    3.6285   -3.5998   -0.6895 H   0  0  0  0  0  0  0  0  0  0  0  0
    1.9610   -1.2738   -0.0023 C   0  0  0  0  0  0  0  0  0  0  0  0
    0.8107   -0.7327    0.5785 C   0  0  0  0  0  0  0  0  0  0  0  0
    3.1194   -1.0333    2.1054 C   0  0  0  0  0  0  0  0  0  0  0  0
    3.1392   -1.4302    0.7556 C   0  0  0  0  0  0  0  0  0  0  0  0
    0.8079   -0.3389    1.9143 C   0  0  0  0  0  0  0  0  0  0  0  0
    1.9659   -0.4930    2.6892 C   0  0  0  0  0  0  0  0  0  0  0  0
    5.5816    0.6954   -2.2873 C   0  0  0  0  0  0  0  0  0  0  0  0
    5.2944   -0.8078   -0.3232 C   0  0  0  0  0  0  0  0  0  0  0  0
    4.4177   -1.9709    0.1550 C   0  0  2  0  0  0  0  0  0  0  0  0
    4.6959   -0.2345   -1.5490 N   0  0  0  0  0  0  0  0  0  0  0  0
   -0.3157    0.1923    2.4760 O   0  0  0  0  0  0  0  0  0  0  0  0
    1.9581   -0.1142    4.0093 O   0  0  0  0  0  0  0  0  0  0  0  0
    4.1300   -2.8062   -0.9737 O   0  0  0  0  0  0  0  0  0  0  0  0
 15 16  2  0
 15 18  1  0
  1 15  1  0
 16 19  1  0
  2 16  1  0
 17 18  2  0
 17 20  1  0
  3 17  1  0
 18 23  1  0
 19 20  2  0
 19 25  1  0
 20 26  1  0
 21 24  1  0
  4 21  1  0
  5 21  1  0
  6 21  1  0
 22 23  1  0
 22 24  1  0
  7 22  1  0
  8 22  1  0
 23 27  1  0
 23  9  1  1
 10 24  1  0
 11 24  1  0
 12 25  1  0
 13 26  1  0
 14 27  1  0
M  CHG  1  24   1
M  END
>  <SMILES QCArchive>  (1) 
C[NH2+]C[C@@H](c1ccc(c(c1)O)O)O-2

>  <Energy QCArchive>  (1) 
-396395.36419510853

>  <Energy FFXML>  (1) 
91.460674587240192

>  <group_name>  (1) 
TST

>  <molecule_index>  (1) 
00001

>  <conformer_index>  (1) 
03

>  <method>  (1) 
openff-1.2.0

>  <basis>  (1) 
xx

>  <program>  (1) 
xx

>  <initial_energy>  (1) 
-1 kilocalorie / mole

>  <final_energy>  (1) 
91.46067458724019 kilocalorie / mole

$$$$
