TST-00005-02
     RDKit          3D

 22 22  0  0  0  0  0  0  0  0999 V2000
    1.7079   -0.7640   -1.2008 H   0  0  0  0  0  0  0  0  0  0  0  0
   -0.5446   -0.0853    2.3891 H   0  0  0  0  0  0  0  0  0  0  0  0
   -0.6424    1.9840   -1.8634 H   0  0  0  0  0  0  0  0  0  0  0  0
   -0.1385    2.4361   -0.3273 H   0  0  0  0  0  0  0  0  0  0  0  0
    4.7320   -1.8386   -2.1053 H   0  0  0  0  0  0  0  0  0  0  0  0
    3.5950   -3.0637   -1.9740 H   0  0  0  0  0  0  0  0  0  0  0  0
    1.6139   -0.8694   -0.1194 C   0  0  0  0  0  0  0  0  0  0  0  0
    0.3412   -0.4755    1.8896 C   0  0  0  0  0  0  0  0  0  0  0  0
    0.4792   -0.3528    0.5049 C   0  0  0  0  0  0  0  0  0  0  0  0
    2.6134   -1.5050    0.6302 C   0  0  0  0  0  0  0  0  0  0  0  0
    1.3300   -1.0973    2.6554 C   0  0  0  0  0  0  0  0  0  0  0  0
    2.4779   -1.6133    2.0253 C   0  0  0  0  0  0  0  0  0  0  0  0
   -0.0213    1.7817   -1.0894 N   0  0  0  0  0  0  0  0  0  0  0  0
    3.7933   -2.0829   -1.8089 N   0  0  0  0  0  0  0  0  0  0  0  0
   -1.2456   -0.3096   -1.6350 O   0  0  0  0  0  0  0  0  0  0  0  0
   -1.8809    1.0183    0.3374 O   0  0  0  0  0  0  0  0  0  0  0  0
    5.2953   -1.3731    0.0186 O   0  0  0  0  0  0  0  0  0  0  0  0
    4.2933   -3.6004    0.0396 O   0  0  0  0  0  0  0  0  0  0  0  0
   -0.8028    0.4608   -0.4761 S   0  0  0  0  0  0  0  0  0  0  0  0
    4.0891   -2.1716   -0.1869 S   0  0  0  0  0  0  0  0  0  0  0  0
    1.1170   -1.2183    4.3896 Cl  0  0  0  0  0  0  0  0  0  0  0  0
    3.7301   -2.3773    2.9912 Cl  0  0  0  0  0  0  0  0  0  0  0  0
  7  9  2  0
  7 10  1  0
  1  7  1  0
  8  9  1  0
  8 11  2  0
  2  8  1  0
  9 19  1  0
 10 12  2  0
 10 20  1  0
 11 12  1  0
 11 21  1  0
 12 22  1  0
 13 19  1  0
  3 13  1  0
  4 13  1  0
 14 20  1  0
  5 14  1  0
  6 14  1  0
 15 19  2  0
 16 19  2  0
 17 20  2  0
 18 20  2  0
M  END
>  <SMILES QCArchive>  (1) 
c1c(cc(c(c1S(=O)(=O)N)Cl)Cl)S(=O)(=O)N-1

>  <Energy QCArchive>  (1) 
-1480483.100314812

>  <Energy FFXML>  (1) 
-270.6333612154578

>  <group_name>  (1) 
TST

>  <molecule_index>  (1) 
00005

>  <conformer_index>  (1) 
02

>  <method>  (1) 
openff-1.2.0

>  <basis>  (1) 
xx

>  <program>  (1) 
xx

>  <initial_energy>  (1) 
xx

>  <final_energy>  (1) 
-270.6333612154578

$$$$
