TST-00001-05
     RDKit          3D

 27 27  0  0  0  0  0  0  0  0999 V2000
    3.4518    0.7234    0.0369 H   0  0  0  0  0  0  0  0  0  0  0  0
    1.6963    1.5550    1.5740 H   0  0  0  0  0  0  0  0  0  0  0  0
    1.8217   -3.2601    0.3986 H   0  0  0  0  0  0  0  0  0  0  0  0
    7.9646   -2.0662    0.1962 H   0  0  0  0  0  0  0  0  0  0  0  0
    8.3481   -1.4497   -1.4228 H   0  0  0  0  0  0  0  0  0  0  0  0
    7.5271   -0.4058   -0.2492 H   0  0  0  0  0  0  0  0  0  0  0  0
    5.2530   -2.7107    0.6018 H   0  0  0  0  0  0  0  0  0  0  0  0
    5.2671   -0.9468    0.4917 H   0  0  0  0  0  0  0  0  0  0  0  0
    3.5966   -2.8960   -1.1194 H   0  0  0  0  0  0  0  0  0  0  0  0
    5.9228   -1.3075   -1.8736 H   0  0  0  0  0  0  0  0  0  0  0  0
    6.3545   -2.8537   -1.5100 H   0  0  0  0  0  0  0  0  0  0  0  0
   -0.7432   -0.6446    2.9451 H   0  0  0  0  0  0  0  0  0  0  0  0
   -0.0319   -3.4799    1.6981 H   0  0  0  0  0  0  0  0  0  0  0  0
    3.0261   -0.8725   -2.3286 H   0  0  0  0  0  0  0  0  0  0  0  0
    2.7269    0.0227    0.4438 C   0  0  0  0  0  0  0  0  0  0  0  0
    1.7397    0.5026    1.3086 C   0  0  0  0  0  0  0  0  0  0  0  0
    1.8075   -2.2032    0.6483 C   0  0  0  0  0  0  0  0  0  0  0  0
    2.7740   -1.3401    0.1012 C   0  0  0  0  0  0  0  0  0  0  0  0
    0.7875   -0.3610    1.8454 C   0  0  0  0  0  0  0  0  0  0  0  0
    0.8155   -1.7238    1.5148 C   0  0  0  0  0  0  0  0  0  0  0  0
    7.5949   -1.4360   -0.6235 C   0  0  0  0  0  0  0  0  0  0  0  0
    5.2024   -1.8686   -0.1003 C   0  0  0  0  0  0  0  0  0  0  0  0
    3.8442   -1.8732   -0.8125 C   0  0  2  0  0  0  0  0  0  0  0  0
    6.2807   -1.9118   -1.1156 N   0  0  0  0  0  0  0  0  0  0  0  0
   -0.1748    0.1089    2.6903 O   0  0  0  0  0  0  0  0  0  0  0  0
   -0.1270   -2.5726    2.0419 O   0  0  0  0  0  0  0  0  0  0  0  0
    3.9267   -1.0439   -1.9784 O   0  0  0  0  0  0  0  0  0  0  0  0
 15 16  2  0
 15 18  1  0
  1 15  1  0
 16 19  1  0
  2 16  1  0
 17 18  2  0
 17 20  1  0
  3 17  1  0
 18 23  1  0
 19 20  2  0
 19 25  1  0
 20 26  1  0
 21 24  1  0
  4 21  1  0
  5 21  1  0
  6 21  1  0
 22 23  1  0
 22 24  1  0
  7 22  1  0
  8 22  1  0
 23 27  1  0
 23  9  1  6
 10 24  1  0
 11 24  1  0
 12 25  1  0
 13 26  1  0
 14 27  1  0
M  CHG  1  24   1
M  END
>  <SMILES QCArchive>  (1) 
C[NH2+]C[C@@H](c1ccc(c(c1)O)O)O-4

>  <Energy QCArchive>  (1) 
-396393.49386196205

>  <Energy FFXML>  (1) 
92.049470256510872

>  <group_name>  (1) 
TST

>  <molecule_index>  (1) 
00001

>  <conformer_index>  (1) 
05

>  <method>  (1) 
openff-1.2.0

>  <basis>  (1) 
xx

>  <program>  (1) 
xx

>  <initial_energy>  (1) 
xx

>  <final_energy>  (1) 
92.049470256510872

$$$$
