TST-00001-10
     RDKit          3D

 27 27  0  0  0  0  0  0  0  0999 V2000
    2.7556   -3.3599    1.4515 H   0  0  0  0  0  0  0  0  0  0  0  0
    1.1711   -2.4417    3.1199 H   0  0  0  0  0  0  0  0  0  0  0  0
    2.9500    0.5186   -0.4370 H   0  0  0  0  0  0  0  0  0  0  0  0
    6.8471    0.4589    1.0418 H   0  0  0  0  0  0  0  0  0  0  0  0
    7.2627   -0.6233    2.3831 H   0  0  0  0  0  0  0  0  0  0  0  0
    7.8570   -0.9678    0.7477 H   0  0  0  0  0  0  0  0  0  0  0  0
    5.3008   -0.3289   -0.7406 H   0  0  0  0  0  0  0  0  0  0  0  0
    6.1014   -1.8725   -1.0273 H   0  0  0  0  0  0  0  0  0  0  0  0
    4.0855   -3.1021   -0.4996 H   0  0  0  0  0  0  0  0  0  0  0  0
    5.9272   -2.3681    1.3322 H   0  0  0  0  0  0  0  0  0  0  0  0
    4.9847   -1.0372    1.5876 H   0  0  0  0  0  0  0  0  0  0  0  0
    0.1204    0.9561    2.9985 H   0  0  0  0  0  0  0  0  0  0  0  0
    1.5010    2.1003    0.3813 H   0  0  0  0  0  0  0  0  0  0  0  0
    2.6657   -2.0096   -2.0806 H   0  0  0  0  0  0  0  0  0  0  0  0
    2.4792   -2.3092    1.3985 C   0  0  0  0  0  0  0  0  0  0  0  0
    1.5819   -1.8024    2.3429 C   0  0  0  0  0  0  0  0  0  0  0  0
    2.5773   -0.1347    0.3478 C   0  0  0  0  0  0  0  0  0  0  0  0
    2.9975   -1.4777    0.3934 C   0  0  0  0  0  0  0  0  0  0  0  0
    1.1822   -0.4679    2.2977 C   0  0  0  0  0  0  0  0  0  0  0  0
    1.6737    0.3737    1.2890 C   0  0  0  0  0  0  0  0  0  0  0  0
    6.9962   -0.5935    1.3179 C   0  0  0  0  0  0  0  0  0  0  0  0
    5.3713   -1.3644   -0.3841 C   0  0  0  0  0  0  0  0  0  0  0  0
    4.0008   -2.0138   -0.5990 C   0  0  2  0  0  0  0  0  0  0  0  0
    5.7805   -1.3962    1.0427 N   0  0  0  0  0  0  0  0  0  0  0  0
    0.3099    0.0235    3.2237 O   0  0  0  0  0  0  0  0  0  0  0  0
    1.2654    1.6831    1.2314 O   0  0  0  0  0  0  0  0  0  0  0  0
    3.5727   -1.6831   -1.9127 O   0  0  0  0  0  0  0  0  0  0  0  0
 15 16  2  0
 15 18  1  0
  1 15  1  0
 16 19  1  0
  2 16  1  0
 17 18  2  0
 17 20  1  0
  3 17  1  0
 18 23  1  0
 19 20  2  0
 19 25  1  0
 20 26  1  0
 21 24  1  0
  4 21  1  0
  5 21  1  0
  6 21  1  0
 22 23  1  0
 22 24  1  0
  7 22  1  0
  8 22  1  0
 23 27  1  0
 23  9  1  6
 10 24  1  0
 11 24  1  0
 12 25  1  0
 13 26  1  0
 14 27  1  0
M  CHG  1  24   1
M  END
>  <SMILES QCArchive>  (1) 
C[NH2+]C[C@@H](c1ccc(c(c1)O)O)O-9

>  <Energy QCArchive>  (1) 
-396390.88436179009

>  <Energy FFXML>  (1) 
97.802607123464369

>  <group_name>  (1) 
TST

>  <molecule_index>  (1) 
00001

>  <conformer_index>  (1) 
10

>  <method>  (1) 
openff-1.2.0

>  <basis>  (1) 
xx

>  <program>  (1) 
xx

>  <initial_energy>  (1) 
xx

>  <final_energy>  (1) 
97.802607123464369

$$$$
