TST-00005-09
     RDKit          3D

 22 22  0  0  0  0  0  0  0  0999 V2000
    1.8051   -1.7080   -1.4969 H   0  0  0  0  0  0  0  0  0  0  0  0
   -0.1468    0.3135    1.7564 H   0  0  0  0  0  0  0  0  0  0  0  0
    0.4233    1.3055   -2.1952 H   0  0  0  0  0  0  0  0  0  0  0  0
   -1.1178    1.7709   -1.7262 H   0  0  0  0  0  0  0  0  0  0  0  0
    4.4176   -4.8495   -0.3104 H   0  0  0  0  0  0  0  0  0  0  0  0
    4.6034   -4.1869    1.2201 H   0  0  0  0  0  0  0  0  0  0  0  0
    1.7789   -1.4144   -0.4457 C   0  0  0  0  0  0  0  0  0  0  0  0
    0.6812   -0.2834    1.3764 C   0  0  0  0  0  0  0  0  0  0  0  0
    0.7173   -0.6440    0.0284 C   0  0  0  0  0  0  0  0  0  0  0  0
    2.8076   -1.8161    0.4141 C   0  0  0  0  0  0  0  0  0  0  0  0
    1.6934   -0.6808    2.2531 C   0  0  0  0  0  0  0  0  0  0  0  0
    2.7676   -1.4546    1.7741 C   0  0  0  0  0  0  0  0  0  0  0  0
   -0.2101    1.4438   -1.4188 N   0  0  0  0  0  0  0  0  0  0  0  0
    3.9924   -4.2913    0.4201 N   0  0  0  0  0  0  0  0  0  0  0  0
   -0.5774   -0.7832   -2.3845 O   0  0  0  0  0  0  0  0  0  0  0  0
   -1.9263   -0.0630   -0.4505 O   0  0  0  0  0  0  0  0  0  0  0  0
    4.0649   -3.0142   -1.7108 O   0  0  0  0  0  0  0  0  0  0  0  0
    5.4949   -2.3647    0.1631 O   0  0  0  0  0  0  0  0  0  0  0  0
   -0.6105   -0.1230   -1.0824 S   0  0  0  0  0  0  0  0  0  0  0  0
    4.1680   -2.7979   -0.2685 S   0  0  0  0  0  0  0  0  0  0  0  0
    1.5991   -0.2059    3.9365 Cl  0  0  0  0  0  0  0  0  0  0  0  0
    4.0282   -1.9620    2.8875 Cl  0  0  0  0  0  0  0  0  0  0  0  0
  7  9  2  0
  7 10  1  0
  1  7  1  0
  8  9  1  0
  8 11  2  0
  2  8  1  0
  9 19  1  0
 10 12  2  0
 10 20  1  0
 11 12  1  0
 11 21  1  0
 12 22  1  0
 13 19  1  0
  3 13  1  0
  4 13  1  0
 14 20  1  0
  5 14  1  0
  6 14  1  0
 15 19  2  0
 16 19  2  0
 17 20  2  0
 18 20  2  0
M  END
>  <SMILES QCArchive>  (1) 
c1c(cc(c(c1S(=O)(=O)N)Cl)Cl)S(=O)(=O)N-8

>  <Energy QCArchive>  (1) 
-1480484.9757780668

>  <Energy FFXML>  (1) 
-271.1170517513296

>  <group_name>  (1) 
TST

>  <molecule_index>  (1) 
00005

>  <conformer_index>  (1) 
09

>  <method>  (1) 
openff-1.2.0

>  <basis>  (1) 
xx

>  <program>  (1) 
xx

>  <initial_energy>  (1) 
xx

>  <final_energy>  (1) 
-271.1170517513296

$$$$
