TST-00001-06
     RDKit          3D

 27 27  0  0  0  0  0  0  0  0999 V2000
    1.8899   -3.4412    0.5831 H   0  0  0  0  0  0  0  0  0  0  0  0
    0.2168   -2.5977    2.1691 H   0  0  0  0  0  0  0  0  0  0  0  0
    3.4874    0.5568    0.1958 H   0  0  0  0  0  0  0  0  0  0  0  0
    8.0489   -1.8391    0.0250 H   0  0  0  0  0  0  0  0  0  0  0  0
    8.2587   -1.2202   -1.6250 H   0  0  0  0  0  0  0  0  0  0  0  0
    7.4200   -0.2387   -0.4107 H   0  0  0  0  0  0  0  0  0  0  0  0
    5.4297   -2.7433    0.6155 H   0  0  0  0  0  0  0  0  0  0  0  0
    5.3000   -0.9843    0.5040 H   0  0  0  0  0  0  0  0  0  0  0  0
    3.6592   -3.0686   -0.9562 H   0  0  0  0  0  0  0  0  0  0  0  0
    5.8055   -1.3214   -1.9051 H   0  0  0  0  0  0  0  0  0  0  0  0
    6.4084   -2.8131   -1.5558 H   0  0  0  0  0  0  0  0  0  0  0  0
   -0.6371   -0.7742    3.2788 H   0  0  0  0  0  0  0  0  0  0  0  0
    1.1088    1.8333    2.4812 H   0  0  0  0  0  0  0  0  0  0  0  0
    2.8821   -1.0610   -2.1383 H   0  0  0  0  0  0  0  0  0  0  0  0
    1.8902   -2.3840    0.8377 C   0  0  0  0  0  0  0  0  0  0  0  0
    0.9348   -1.9043    1.7425 C   0  0  0  0  0  0  0  0  0  0  0  0
    2.7867   -0.1559    0.6224 C   0  0  0  0  0  0  0  0  0  0  0  0
    2.8300   -1.5140    0.2647 C   0  0  0  0  0  0  0  0  0  0  0  0
    0.9025   -0.5498    2.0948 C   0  0  0  0  0  0  0  0  0  0  0  0
    1.8414    0.3274    1.5276 C   0  0  0  0  0  0  0  0  0  0  0  0
    7.5642   -1.2645   -0.7753 C   0  0  0  0  0  0  0  0  0  0  0  0
    5.2663   -1.9119   -0.0820 C   0  0  0  0  0  0  0  0  0  0  0  0
    3.8659   -2.0232   -0.6993 C   0  0  2  0  0  0  0  0  0  0  0  0
    6.2730   -1.8755   -1.1682 N   0  0  0  0  0  0  0  0  0  0  0  0
   -0.0303   -0.0729    2.9819 O   0  0  0  0  0  0  0  0  0  0  0  0
    1.8374    1.6558    1.8540 O   0  0  0  0  0  0  0  0  0  0  0  0
    3.8169   -1.2277   -1.8904 O   0  0  0  0  0  0  0  0  0  0  0  0
 15 16  2  0
 15 18  1  0
  1 15  1  0
 16 19  1  0
  2 16  1  0
 17 18  2  0
 17 20  1  0
  3 17  1  0
 18 23  1  0
 19 20  2  0
 19 25  1  0
 20 26  1  0
 21 24  1  0
  4 21  1  0
  5 21  1  0
  6 21  1  0
 22 23  1  0
 22 24  1  0
  7 22  1  0
  8 22  1  0
 23 27  1  0
 23  9  1  6
 10 24  1  0
 11 24  1  0
 12 25  1  0
 13 26  1  0
 14 27  1  0
M  CHG  1  24   1
M  END
>  <SMILES QCArchive>  (1) 
C[NH2+]C[C@@H](c1ccc(c(c1)O)O)O-5

>  <Energy QCArchive>  (1) 
-396395.11497406563

>  <Energy FFXML>  (1) 
93.518962634165234

>  <group_name>  (1) 
TST

>  <molecule_index>  (1) 
00001

>  <conformer_index>  (1) 
06

>  <method>  (1) 
openff-1.2.0

>  <basis>  (1) 
xx

>  <program>  (1) 
xx

>  <initial_energy>  (1) 
-1 kilocalorie / mole

>  <final_energy>  (1) 
93.51896263416523 kilocalorie / mole

$$$$
