TST-00005-08
     RDKit          3D

 22 22  0  0  0  0  0  0  0  0999 V2000
    1.7152   -0.9100   -1.1406 H   0  0  0  0  0  0  0  0  0  0  0  0
   -0.0128   -0.0795    2.7073 H   0  0  0  0  0  0  0  0  0  0  0  0
   -1.7018    1.8739    0.7487 H   0  0  0  0  0  0  0  0  0  0  0  0
   -2.5121    0.4062    0.7019 H   0  0  0  0  0  0  0  0  0  0  0  0
    4.6593   -1.5411   -2.2464 H   0  0  0  0  0  0  0  0  0  0  0  0
    3.8490   -3.0092   -2.2933 H   0  0  0  0  0  0  0  0  0  0  0  0
    1.7668   -0.9733   -0.0534 C   0  0  0  0  0  0  0  0  0  0  0  0
    0.7827   -0.4989    2.0947 C   0  0  0  0  0  0  0  0  0  0  0  0
    0.7276   -0.4238    0.6982 C   0  0  0  0  0  0  0  0  0  0  0  0
    2.8552   -1.5941    0.5749 C   0  0  0  0  0  0  0  0  0  0  0  0
    1.8591   -1.1136    2.7388 C   0  0  0  0  0  0  0  0  0  0  0  0
    2.9045   -1.6662    1.9770 C   0  0  0  0  0  0  0  0  0  0  0  0
   -1.6839    0.8970    1.0232 N   0  0  0  0  0  0  0  0  0  0  0  0
    3.8157   -2.0422   -1.9870 N   0  0  0  0  0  0  0  0  0  0  0  0
   -0.2856    1.5789   -0.8813 O   0  0  0  0  0  0  0  0  0  0  0  0
   -1.4636   -0.5550   -0.9492 O   0  0  0  0  0  0  0  0  0  0  0  0
    5.4841   -1.6233   -0.2437 O   0  0  0  0  0  0  0  0  0  0  0  0
    4.3043   -3.7609   -0.3121 O   0  0  0  0  0  0  0  0  0  0  0  0
   -0.6619    0.3704   -0.1544 S   0  0  0  0  0  0  0  0  0  0  0  0
    4.2033   -2.3067   -0.4073 S   0  0  0  0  0  0  0  0  0  0  0  0
    1.8811   -1.1818    4.4890 Cl  0  0  0  0  0  0  0  0  0  0  0  0
    4.2580   -2.4391    2.7867 Cl  0  0  0  0  0  0  0  0  0  0  0  0
  7  9  2  0
  7 10  1  0
  1  7  1  0
  8  9  1  0
  8 11  2  0
  2  8  1  0
  9 19  1  0
 10 12  2  0
 10 20  1  0
 11 12  1  0
 11 21  1  0
 12 22  1  0
 13 19  1  0
  3 13  1  0
  4 13  1  0
 14 20  1  0
  5 14  1  0
  6 14  1  0
 15 19  2  0
 16 19  2  0
 17 20  2  0
 18 20  2  0
M  END
>  <SMILES QCArchive>  (1) 
c1c(cc(c(c1S(=O)(=O)N)Cl)Cl)S(=O)(=O)N-7

>  <Energy QCArchive>  (1) 
-1480481.6453085511

>  <Energy FFXML>  (1) 
-269.28544601046877

>  <group_name>  (1) 
TST

>  <molecule_index>  (1) 
00005

>  <conformer_index>  (1) 
08

>  <method>  (1) 
openff-1.2.0

>  <basis>  (1) 
xx

>  <program>  (1) 
xx

>  <initial_energy>  (1) 
xx

>  <final_energy>  (1) 
-269.28544601046877

$$$$
