TST-00005-11
     RDKit          3D

 22 22  0  0  0  0  0  0  0  0999 V2000
    2.0293   -0.8280   -1.2703 H   0  0  0  0  0  0  0  0  0  0  0  0
   -0.5039    0.0283    2.0958 H   0  0  0  0  0  0  0  0  0  0  0  0
    0.5618    2.2412   -1.1783 H   0  0  0  0  0  0  0  0  0  0  0  0
   -1.0656    2.4930   -0.8626 H   0  0  0  0  0  0  0  0  0  0  0  0
    4.6471   -4.1377   -0.7091 H   0  0  0  0  0  0  0  0  0  0  0  0
    4.5691   -3.9838    0.9602 H   0  0  0  0  0  0  0  0  0  0  0  0
    1.8317   -0.8814   -0.1979 C   0  0  0  0  0  0  0  0  0  0  0  0
    0.4086   -0.4029    1.6864 C   0  0  0  0  0  0  0  0  0  0  0  0
    0.6638   -0.3187    0.3166 C   0  0  0  0  0  0  0  0  0  0  0  0
    2.7497   -1.5150    0.6475 C   0  0  0  0  0  0  0  0  0  0  0  0
    1.3081   -1.0374    2.5465 C   0  0  0  0  0  0  0  0  0  0  0  0
    2.4899   -1.6004    2.0285 C   0  0  0  0  0  0  0  0  0  0  0  0
   -0.1951    2.1039   -0.5216 N   0  0  0  0  0  0  0  0  0  0  0  0
    4.0860   -3.8445    0.0818 N   0  0  0  0  0  0  0  0  0  0  0  0
   -0.2437    0.3063   -2.1941 O   0  0  0  0  0  0  0  0  0  0  0  0
   -1.9161    0.3223   -0.3828 O   0  0  0  0  0  0  0  0  0  0  0  0
    4.3771   -1.9638   -1.5165 O   0  0  0  0  0  0  0  0  0  0  0  0
    5.4759   -1.9055    0.6669 O   0  0  0  0  0  0  0  0  0  0  0  0
   -0.5204    0.5041   -0.7740 S   0  0  0  0  0  0  0  0  0  0  0  0
    4.2570   -2.2076   -0.0799 S   0  0  0  0  0  0  0  0  0  0  0  0
    0.9399   -1.1187    4.2570 Cl  0  0  0  0  0  0  0  0  0  0  0  0
    3.6085   -2.4077    3.1162 Cl  0  0  0  0  0  0  0  0  0  0  0  0
  7  9  2  0
  7 10  1  0
  1  7  1  0
  8  9  1  0
  8 11  2  0
  2  8  1  0
  9 19  1  0
 10 12  2  0
 10 20  1  0
 11 12  1  0
 11 21  1  0
 12 22  1  0
 13 19  1  0
  3 13  1  0
  4 13  1  0
 14 20  1  0
  5 14  1  0
  6 14  1  0
 15 19  2  0
 16 19  2  0
 17 20  2  0
 18 20  2  0
M  END
>  <SMILES QCArchive>  (1) 
c1c(cc(c(c1S(=O)(=O)N)Cl)Cl)S(=O)(=O)N-10

>  <Energy QCArchive>  (1) 
-1480484.9757576501

>  <Energy FFXML>  (1) 
-271.11826508585864

>  <group_name>  (1) 
TST

>  <molecule_index>  (1) 
00005

>  <conformer_index>  (1) 
11

>  <method>  (1) 
openff-1.2.0

>  <basis>  (1) 
xx

>  <program>  (1) 
xx

>  <initial_energy>  (1) 
xx

>  <final_energy>  (1) 
-271.11826508585864

$$$$
