TST-00001-04
     RDKit          3D

 27 27  0  0  0  0  0  0  0  0999 V2000
    3.9568   -1.6098    2.8600 H   0  0  0  0  0  0  0  0  0  0  0  0
    1.8928   -0.8046    3.9153 H   0  0  0  0  0  0  0  0  0  0  0  0
    1.9938   -1.4474   -0.9946 H   0  0  0  0  0  0  0  0  0  0  0  0
    6.3450    0.2967   -2.5555 H   0  0  0  0  0  0  0  0  0  0  0  0
    4.8604    1.1014   -3.0952 H   0  0  0  0  0  0  0  0  0  0  0  0
    5.6386    1.6013   -1.5816 H   0  0  0  0  0  0  0  0  0  0  0  0
    6.2711   -1.1694   -0.5197 H   0  0  0  0  0  0  0  0  0  0  0  0
    5.3316   -0.0998    0.5407 H   0  0  0  0  0  0  0  0  0  0  0  0
    5.0402   -2.6133    0.9292 H   0  0  0  0  0  0  0  0  0  0  0  0
    3.6881    0.1295   -1.1749 H   0  0  0  0  0  0  0  0  0  0  0  0
    4.3698   -1.0836   -2.0470 H   0  0  0  0  0  0  0  0  0  0  0  0
   -0.3053   -0.1789    3.6211 H   0  0  0  0  0  0  0  0  0  0  0  0
   -0.9854   -0.2556    0.4556 H   0  0  0  0  0  0  0  0  0  0  0  0
    3.6322   -3.6447   -0.6665 H   0  0  0  0  0  0  0  0  0  0  0  0
    3.0943   -1.3931    2.2335 C   0  0  0  0  0  0  0  0  0  0  0  0
    1.9177   -0.9329    2.8374 C   0  0  0  0  0  0  0  0  0  0  0  0
    2.0144   -1.2936    0.0804 C   0  0  0  0  0  0  0  0  0  0  0  0
    3.1610   -1.5825    0.8445 C   0  0  0  0  0  0  0  0  0  0  0  0
    0.7879   -0.6392    2.0657 C   0  0  0  0  0  0  0  0  0  0  0  0
    0.8462   -0.8163    0.6741 C   0  0  0  0  0  0  0  0  0  0  0  0
    5.3988    0.7343   -2.2110 C   0  0  0  0  0  0  0  0  0  0  0  0
    5.2564   -0.8304   -0.2749 C   0  0  0  0  0  0  0  0  0  0  0  0
    4.4491   -2.0435    0.2026 C   0  0  2  0  0  0  0  0  0  0  0  0
    4.5913   -0.2597   -1.4677 N   0  0  0  0  0  0  0  0  0  0  0  0
   -0.3676   -0.1825    2.6489 O   0  0  0  0  0  0  0  0  0  0  0  0
   -0.2349   -0.5251   -0.1111 O   0  0  0  0  0  0  0  0  0  0  0  0
    4.1565   -2.8614   -0.9370 O   0  0  0  0  0  0  0  0  0  0  0  0
 15 16  2  0
 15 18  1  0
  1 15  1  0
 16 19  1  0
  2 16  1  0
 17 18  2  0
 17 20  1  0
  3 17  1  0
 18 23  1  0
 19 20  2  0
 19 25  1  0
 20 26  1  0
 21 24  1  0
  4 21  1  0
  5 21  1  0
  6 21  1  0
 22 23  1  0
 22 24  1  0
  7 22  1  0
  8 22  1  0
 23 27  1  0
 23  9  1  1
 10 24  1  0
 11 24  1  0
 12 25  1  0
 13 26  1  0
 14 27  1  0
M  CHG  1  24   1
M  END
>  <SMILES QCArchive>  (1) 
C[NH2+]C[C@@H](c1ccc(c(c1)O)O)O-3

>  <Energy QCArchive>  (1) 
-396396.86436187039

>  <Energy FFXML>  (1) 
91.718250857256976

>  <group_name>  (1) 
TST

>  <molecule_index>  (1) 
00001

>  <conformer_index>  (1) 
04

>  <method>  (1) 
openff-1.2.0

>  <basis>  (1) 
xx

>  <program>  (1) 
xx

>  <initial_energy>  (1) 
-1 kilocalorie / mole

>  <final_energy>  (1) 
91.71825085725698 kilocalorie / mole

$$$$
