TST-00005-07
     RDKit          3D

 22 22  0  0  0  0  0  0  0  0999 V2000
    1.8905   -1.0026   -1.2521 H   0  0  0  0  0  0  0  0  0  0  0  0
   -0.0784   -0.0347    2.4458 H   0  0  0  0  0  0  0  0  0  0  0  0
   -1.0957   -0.2814   -2.2633 H   0  0  0  0  0  0  0  0  0  0  0  0
   -0.2851    1.1868   -2.2170 H   0  0  0  0  0  0  0  0  0  0  0  0
    4.8923   -1.6727   -2.1503 H   0  0  0  0  0  0  0  0  0  0  0  0
    4.0820   -3.1402   -2.1974 H   0  0  0  0  0  0  0  0  0  0  0  0
    1.8649   -1.0235   -0.1632 C   0  0  0  0  0  0  0  0  0  0  0  0
    0.7570   -0.4785    1.9066 C   0  0  0  0  0  0  0  0  0  0  0  0
    0.7830   -0.4479    0.5104 C   0  0  0  0  0  0  0  0  0  0  0  0
    2.9121   -1.6245    0.5507 C   0  0  0  0  0  0  0  0  0  0  0  0
    1.7901   -1.0722    2.6346 C   0  0  0  0  0  0  0  0  0  0  0  0
    2.8772   -1.6504    1.9552 C   0  0  0  0  0  0  0  0  0  0  0  0
   -0.2450    0.1988   -1.9893 N   0  0  0  0  0  0  0  0  0  0  0  0
    4.0304   -2.1620   -1.9316 N   0  0  0  0  0  0  0  0  0  0  0  0
   -1.8589   -0.3567   -0.2146 O   0  0  0  0  0  0  0  0  0  0  0  0
   -0.6822    1.7733   -0.1474 O   0  0  0  0  0  0  0  0  0  0  0  0
    5.5867   -1.6843   -0.1063 O   0  0  0  0  0  0  0  0  0  0  0  0
    4.4068   -3.8217   -0.1749 O   0  0  0  0  0  0  0  0  0  0  0  0
   -0.5856    0.3363   -0.3852 S   0  0  0  0  0  0  0  0  0  0  0  0
    4.3158   -2.3713   -0.3226 S   0  0  0  0  0  0  0  0  0  0  0  0
    1.7064   -1.0822    4.3840 Cl  0  0  0  0  0  0  0  0  0  0  0  0
    4.1775   -2.3976    2.8696 Cl  0  0  0  0  0  0  0  0  0  0  0  0
  7  9  2  0
  7 10  1  0
  1  7  1  0
  8  9  1  0
  8 11  2  0
  2  8  1  0
  9 19  1  0
 10 12  2  0
 10 20  1  0
 11 12  1  0
 11 21  1  0
 12 22  1  0
 13 19  1  0
  3 13  1  0
  4 13  1  0
 14 20  1  0
  5 14  1  0
  6 14  1  0
 15 19  2  0
 16 19  2  0
 17 20  2  0
 18 20  2  0
M  END
>  <SMILES QCArchive>  (1) 
c1c(cc(c(c1S(=O)(=O)N)Cl)Cl)S(=O)(=O)N-6

>  <Energy QCArchive>  (1) 
-1480481.1950137722

>  <Energy FFXML>  (1) 
-268.97130709867247

>  <group_name>  (1) 
TST

>  <molecule_index>  (1) 
00005

>  <conformer_index>  (1) 
07

>  <method>  (1) 
openff-1.2.0

>  <basis>  (1) 
xx

>  <program>  (1) 
xx

>  <initial_energy>  (1) 
xx

>  <final_energy>  (1) 
-268.97130709867247

$$$$
