TST-00001-01
     RDKit          3D

 27 27  0  0  0  0  0  0  0  0999 V2000
    3.0318   -2.8321    2.6773 H   0  0  0  0  0  0  0  0  0  0  0  0
    1.1332   -1.7884    3.8720 H   0  0  0  0  0  0  0  0  0  0  0  0
    2.4080   -0.1019   -0.6118 H   0  0  0  0  0  0  0  0  0  0  0  0
    7.8347   -0.3083   -0.1993 H   0  0  0  0  0  0  0  0  0  0  0  0
    7.8831   -0.8684   -1.8820 H   0  0  0  0  0  0  0  0  0  0  0  0
    6.7104    0.3677   -1.3932 H   0  0  0  0  0  0  0  0  0  0  0  0
    5.6848   -1.2810    1.3127 H   0  0  0  0  0  0  0  0  0  0  0  0
    4.9019   -0.2033    0.1503 H   0  0  0  0  0  0  0  0  0  0  0  0
    4.2868   -3.1261    0.6743 H   0  0  0  0  0  0  0  0  0  0  0  0
    5.6342   -1.8371   -1.5597 H   0  0  0  0  0  0  0  0  0  0  0  0
    6.6996   -2.4836   -0.4850 H   0  0  0  0  0  0  0  0  0  0  0  0
   -0.7051    0.8962    2.4278 H   0  0  0  0  0  0  0  0  0  0  0  0
    0.6410    1.3221   -0.4204 H   0  0  0  0  0  0  0  0  0  0  0  0
    2.8391   -2.8186   -1.2283 H   0  0  0  0  0  0  0  0  0  0  0  0
    2.4961   -2.0120    2.2053 C   0  0  0  0  0  0  0  0  0  0  0  0
    1.4253   -1.4297    2.8891 C   0  0  0  0  0  0  0  0  0  0  0  0
    2.1385   -0.4807    0.3698 C   0  0  0  0  0  0  0  0  0  0  0  0
    2.8672   -1.5466    0.9341 C   0  0  0  0  0  0  0  0  0  0  0  0
    0.7092   -0.3780    2.3219 C   0  0  0  0  0  0  0  0  0  0  0  0
    1.0622    0.1021    1.0522 C   0  0  0  0  0  0  0  0  0  0  0  0
    7.2130   -0.5538   -1.0705 C   0  0  0  0  0  0  0  0  0  0  0  0
    5.2548   -1.2311    0.3040 C   0  0  0  0  0  0  0  0  0  0  0  0
    4.0395   -2.1606    0.2177 C   0  0  2  0  0  0  0  0  0  0  0  0
    6.2286   -1.6124   -0.7455 N   0  0  0  0  0  0  0  0  0  0  0  0
   -0.3352    0.1888    2.9919 O   0  0  0  0  0  0  0  0  0  0  0  0
    0.3517    1.1353    0.4914 O   0  0  0  0  0  0  0  0  0  0  0  0
    3.7094   -2.3702   -1.1611 O   0  0  0  0  0  0  0  0  0  0  0  0
 15 16  2  0
 15 18  1  0
  1 15  1  0
 16 19  1  0
  2 16  1  0
 17 18  2  0
 17 20  1  0
  3 17  1  0
 18 23  1  0
 19 20  2  0
 19 25  1  0
 20 26  1  0
 21 24  1  0
  4 21  1  0
  5 21  1  0
  6 21  1  0
 22 23  1  0
 22 24  1  0
  7 22  1  0
  8 22  1  0
 23 27  1  0
 23  9  1  1
 10 24  1  0
 11 24  1  0
 12 25  1  0
 13 26  1  0
 14 27  1  0
M  CHG  1  24   1
M  END
>  <SMILES QCArchive>  (1) 
C[NH2+]C[C@@H](c1ccc(c(c1)O)O)O-0

>  <Energy QCArchive>  (1) 
-396393.40752616338

>  <Energy FFXML>  (1) 
92.180852095703372

>  <group_name>  (1) 
TST

>  <molecule_index>  (1) 
00001

>  <conformer_index>  (1) 
01

>  <method>  (1) 
openff-1.2.0

>  <basis>  (1) 
xx

>  <program>  (1) 
xx

>  <initial_energy>  (1) 
xx

>  <final_energy>  (1) 
92.180852095703372

$$$$
